*Heading
** Job name: ellip_membrane_3d_linearEl Model name: Model-1
** Generated by: Abaqus/CAE 6.14-1
*Preprint, echo=NO, model=NO, history=NO, contact=NO
**
** PARTS
**
*Part, name=elliptic_membrane_3d
*End Part
**  
**
** ASSEMBLY
**
*Assembly, name=Assembly
**  
*Instance, name=elliptic_membrane_3d-1, part=elliptic_membrane_3d
*Node
      1,         3.25,           0.,  0.100000001
      2,   2.58273458,           0.,  0.100000001
      3,           2.,           0.,  0.100000001
      4,           2.,           0.,           0.
      5,         3.25,           0.,           0.
      6,   1.67983532,  0.542713821,  0.100000001
      7,           0.,           1.,  0.100000001
      8,           0.,           1.,           0.
      9,           0.,         2.75,           0.
     10,           0.,         2.75,  0.100000001
     11,   2.38848972,           0.,  0.100000001
     12,   2.19424486,           0.,  0.100000001
     13,       2.3125,           0.,           0.
     14,        2.625,           0.,           0.
     15,       2.9375,           0.,           0.
     16,   1.97408974,  0.160444409,  0.100000001
     17,   1.90339816,  0.307032377,  0.100000001
     18,    1.8015846,  0.434250236,  0.100000001
     19,   1.37736237,  0.725064278,  0.100000001
     20,   1.04734898,  0.851918459,  0.100000001
** ... 86 like lines cut
*Element, type=C3D4
  1,  97,  27,   6,  19
  2,  97,  96,  69,  94
  3,  97,  55,  54,  28
  4,  69,  99,  98,  96
  5,  98,  96,  95,  76
  6,  98,  69,  76,  70
  7, 101,  82,  68,  70
  8,  99,  97,  96,  69
  9, 100,  70,  53,  54
 10,  96,  95,  75,  93
 11,  95,  47,  76,  80
 12,  96,  69,  94,  67
 13,  91,  66,  67,  56
 14,  94,  55,  56,  67
 15,  67,  91,  94,  93
 16,  94,  91,  56,  20
 17,  93,  74,  92,  75
 18,  93,  66,  90,  74
 19,  94,  55,  67,  69
 20,  96,  75,  95,  76
** ... 217 like lines cut
*Nset, nset=Set-1, generate
   1,  106,    1
*Elset, elset=Set-1, generate
   1,  237,    1
** Section: Section-1
*Solid Section, elset=Set-1, controls=EC-1, material=Material-1
,
*End Instance
**  
*Nset, nset=Set-2, instance=elliptic_membrane_3d-1
  7,  8,  9, 10, 31, 32, 33, 50, 51, 52
*Elset, elset=Set-2, instance=elliptic_membrane_3d-1
  49,  58,  60,  90, 109, 110, 125, 169
*Nset, nset=back_face, instance=elliptic_membrane_3d-1
  4,  5,  8,  9, 13, 14, 15, 23, 24, 25, 26, 27, 28, 29, 30, 31
 32, 33, 34, 35, 36, 37, 38, 39, 40, 41, 53, 54, 55, 56, 57, 58
 59, 60, 61, 62, 63, 64, 65, 66, 67, 68, 69, 70, 71, 72, 73, 74
 75, 76, 77, 78, 79, 80, 81, 82
*Elset, elset=back_face, instance=elliptic_membrane_3d-1
   3,   6,   7,   9,  13,  14,  19,  25,  29,  34,  35,  36,  37,  50,  52,  53
  57,  60,  63,  68,  69,  76,  78,  79,  81,  82,  86,  87,  88,  90,  91,  94
  98,  99, 100, 102, 103, 106, 109, 111, 112, 113, 114, 115, 117, 118, 120, 122
 124, 127, 128, 131, 134, 139, 144, 145, 146, 153, 159, 163, 168, 169, 171, 175
 176, 180, 181, 183, 186, 190, 193, 196, 201, 205, 206, 208, 211, 215, 216, 224
 227, 229, 235, 236
*Nset, nset=down_face, instance=elliptic_membrane_3d-1
  1,  2,  3,  4,  5, 11, 12, 13, 14, 15
*Elset, elset=down_face, instance=elliptic_membrane_3d-1
 157, 214, 215, 216, 218, 221, 223, 226
*Elset, elset=_load_face_S4, internal, instance=elliptic_membrane_3d-1
  37,  73,  84,  89,  92,  96, 168
*Elset, elset=_load_face_S1, internal, instance=elliptic_membrane_3d-1
  70,  98, 113, 153, 224
*Elset, elset=_load_face_S3, internal, instance=elliptic_membrane_3d-1
 110, 221, 237
*Elset, elset=_load_face_S2, internal, instance=elliptic_membrane_3d-1
 118, 120, 151
*Surface, type=ELEMENT, name=load_face
_load_face_S4, S4
_load_face_S1, S1
_load_face_S2, S2
_load_face_S3, S3
*End Assembly
** 
** ELEMENT CONTROLS
** 
*Section Controls, name=EC-1, second order accuracy=YES
1., 1., 1.
** 
** MATERIALS
** 
*Material, name=Material-1
*Elastic
 2.1e+5, 0.3
** ----------------------------------------------------------------
** 
** STEP: Step-1
** 
*Step, name=Step-1, nlgeom=NO
*Static
1., 1., 1e-05, 1.
** 
** BOUNDARY CONDITIONS
** 
** Name: fix_back_z Type: Displacement/Rotation
*Boundary
back_face, 3, 3
** Name: fix_x Type: Displacement/Rotation
*Boundary
Set-2, 1, 1
** Name: fix_y Type: Displacement/Rotation
*Boundary
down_face, 2, 2
** 
** LOADS
** 
** Name: load_pressure   Type: Pressure
*Dsload
load_face, P, -10.
** 
** OUTPUT REQUESTS
** 
*Restart, write, frequency=0
** 
** FIELD OUTPUT: F-Output-1
** 
*Output, field, variable=PRESELECT
** 
** HISTORY OUTPUT: H-Output-1
** 
*Output, history, variable=PRESELECT
*End Step
