 Abaqus/Standard 6.14-1                  DATE 13-9ÔÂ-2022 TIME 00:27:08
 SUMMARY OF JOB INFORMATION:
 STEP  INC ATT SEVERE EQUIL TOTAL  TOTAL      STEP       INC OF       DOF    IF
               DISCON ITERS ITERS  TIME/    TIME/LPF    TIME/LPF    MONITOR RIKS
               ITERS               FREQ
   1     1   1     0     5     5  0.100      0.100      0.1000    
   1     2   1     0     4     4  0.200      0.200      0.1000    
   1     3   1     0     4     4  0.300      0.300      0.1000    
   1     4   1     0     7     7  0.400      0.400      0.1000    
   1     5   1U    0     4     4  0.400      0.400      0.1000    
   1     5   2     0     7     7  0.425      0.425      0.02500   
   1     6   1     0     6     6  0.450      0.450      0.02500   
   1     7   1     0    10    10  0.475      0.475      0.02500   
   1     8   1     0    14    14  0.500      0.500      0.02500   
   1     9   1U    0    16    16  0.500      0.500      0.01875   
   1     9   2U    0    16    16  0.500      0.500      0.004688  
   1     9   3U    0    16    16  0.500      0.500      0.001172  
   1     9   4U    0    16    16  0.500      0.500      0.0002930 
   1     9   5U    0    16    16  0.500      0.500      0.0002500 
                          
 THE ANALYSIS HAS NOT BEEN COMPLETED
