*Heading
** Job name: cookMembrane_2d_linearEl Model name: Model-1
** Generated by: Abaqus/CAE 6.14-1
*Preprint, echo=NO, model=NO, history=NO, contact=NO
**
** PARTS
**
*Part, name=cookMembrane_2d_linearEl
*End Part
**  
**
** ASSEMBLY
**
*Assembly, name=Assembly
**  
*Instance, name=cookMembrane_2d_linearEl-1, part=cookMembrane_2d_linearEl
*Node
      1,           0.,          44.
      2,           0.,           0.
      3,          48.,          44.
      4,          48.,          60.
      5,           0.,          42.
      6,           0.,          40.
      7,           0.,          38.
      8,           0.,          36.
      9,           0.,          34.
     10,           0.,          32.
     11,           0.,          30.
     12,           0.,          28.
     13,           0.,          26.
     14,           0.,          24.
     15,           0.,          22.
     16,           0.,          20.
     17,           0.,          18.
     18,           0.,          16.
     19,           0.,          14.
     20,           0.,          12.
** ... 440 like lines cut
*Element, type=CPE3
  1, 154,  77,  78
  2, 147,  70,  71
  3, 248, 244, 191
  4, 158, 156,  81
  5, 157,  43,  44
  6, 404, 368, 400
  7,  96,  95,  10
  8,  97,  96,  11
  9, 251, 178, 239
 10,  99,  37,  98
 11, 100,  36,  99
 12, 101,  35, 100
 13, 102,  34, 101
 14, 103,  33, 102
 15, 104,  32, 103
 16, 105,  31, 104
 17, 238, 206, 174
 18, 206, 198, 174
 19, 108, 107,  22
 20, 109,  24,  89
** ... 810 like lines cut
*Nset, nset=Set-1, generate
   1,  460,    1
*Elset, elset=Set-1, generate
   1,  830,    1
** Section: Section-1
*Solid Section, elset=Set-1, controls=EC-1, material=Material-1
,
*End Instance
**  
*Nset, nset=left_face, instance=cookMembrane_2d_linearEl-1
  1,  2,  5,  6,  7,  8,  9, 10, 11, 12, 13, 14, 15, 16, 17, 18
 19, 20, 21, 22, 23, 24, 25
*Elset, elset=left_face, instance=cookMembrane_2d_linearEl-1
  23,  86,  87,  99, 100, 101, 103, 121, 122, 123, 125, 134, 136, 138, 140, 142
 144, 146, 158, 160, 236, 240
*Elset, elset=_right_face_S2, internal, instance=cookMembrane_2d_linearEl-1
  51,  55, 184, 189, 191, 193, 198
*Elset, elset=_right_face_S1, internal, instance=cookMembrane_2d_linearEl-1
 62,
*Surface, type=ELEMENT, name=right_face
_right_face_S2, S2
_right_face_S1, S1
*End Assembly
** 
** ELEMENT CONTROLS
** 
*Section Controls, name=EC-1, second order accuracy=YES
1., 1., 1.
** 
** MATERIALS
** 
*Material, name=Material-1
*Elastic
70., 0.3333
** ----------------------------------------------------------------
** 
** STEP: Step-1
** 
*Step, name=Step-1, nlgeom=YES
*Static
0.1, 1., 0.25e-3, 0.1
** 
** BOUNDARY CONDITIONS
** 
** Name: left_fix Type: Displacement/Rotation
*Boundary
left_face, 1, 1
left_face, 2, 2
** 
** LOADS
** 
** Name: right_load   Type: Surface traction
*Dsload, follower=NO
right_face, TRVEC, 6.25, 0., 1., 0.
** 
** OUTPUT REQUESTS
** 
*Restart, write, frequency=0
** 
** FIELD OUTPUT: F-Output-1
** 
*Output, field, variable=PRESELECT
** 
** HISTORY OUTPUT: H-Output-1
** 
*Output, history, variable=PRESELECT
*End Step
