*Heading
** Job name: ellip_CPS4 Model name: Model-1
** Generated by: Abaqus/CAE 6.14-1
*Preprint, echo=NO, model=NO, history=NO, contact=NO
**
** PARTS
**
*Part, name=ellip_membrane
*End Part
**  
**
** ASSEMBLY
**
*Assembly, name=Assembly
**  
*Instance, name=ellip_membrane-1, part=ellip_membrane
*Node
      1,   3.21689367,   0.39151901
      2,   3.11926317,  0.772134542
      3,   2.96178746,   1.13217652
      4,    2.7511766,   1.46399963
      5,   2.49507356,   1.76217663
      6,   2.20117235,   2.02323508
      7,   1.87668478,   2.24518824
      8,   1.52811563,   2.42705512
      9,   1.16124415,   2.56846547
     10,  0.781216919,   2.66937065
     11,  0.392692059,   2.72985196
     12,         3.25,           0.
     13,           0.,         2.75
     14,           0.,           1.
     15,  0.997145355,  0.866847932
     16,  0.603118181,  0.953447461
     17,  0.402987599,  0.979489803
     18,   1.18894374,  0.804116368
     19,    1.4651401,  0.680691659
     20,   1.71666574,  0.513093233
** ... 282 like lines cut
*Element, type=CPS4
  1, 158, 121, 106, 244
  2,  90, 106, 121, 259
  3,  89,  92,  69,  70
  4,  43,  42,  75,  76
  5,  77,  78,  44,  21
  6, 102,  78,  77, 103
  7,  82,  35,  34,  97
  8,  96, 122,  83,  82
  9,  39,  85, 240,  40
 10,  18,  41,  86, 120
 11, 156, 183, 171, 120
 12, 195, 171, 183, 209
 13, 207, 222, 224, 221
 14, 220, 219,  10,  11
 15,  11,  13,  27, 220
 16, 239,  84,  38,  37
 17,  76,  77,  21,  43
 18,  30, 195, 202,  16
 19,  14,  31, 204,  29
 20,  18, 120, 171,  15
** ... 244 like lines cut
*Nset, nset=Set-1, generate
   1,  302,    1
*Elset, elset=Set-1, generate
   1,  264,    1
** Section: Section-1
*Solid Section, elset=Set-1, material=Material-1
,
*End Instance
**  
*Nset, nset=Set-2, instance=ellip_membrane-1
 12, 24, 25, 26, 56, 57, 58, 59, 60, 61, 62, 63, 64, 65, 66, 67
 68, 69, 70, 71, 72, 73, 74
*Elset, elset=Set-2, instance=ellip_membrane-1
   3,  30,  31,  33,  34,  37,  38,  39,  40,  42,  45,  64,  66,  68,  69,  70
  87,  90,  91,  93,  95, 235
*Nset, nset=left-edge, instance=ellip_membrane-1
 13, 14, 27, 28, 29
*Elset, elset=left-edge, instance=ellip_membrane-1
  15,  19, 223, 232
*Elset, elset=_Surf-1_S3, internal, instance=ellip_membrane-1
  14, 197, 216, 219, 221, 227, 230
*Elset, elset=_Surf-1_S1, internal, instance=ellip_membrane-1
  15,  42, 202, 217
*Elset, elset=_Surf-1_S2, internal, instance=ellip_membrane-1
 161,
*Surface, type=ELEMENT, name=Surf-1
_Surf-1_S3, S3
_Surf-1_S1, S1
_Surf-1_S2, S2
*End Assembly
** 
** MATERIALS
** 
*Material, name=Material-1
*Elastic
210000., 0.3
** ----------------------------------------------------------------
** 
** STEP: Step-1
** 
*Step, name=Step-1, nlgeom=NO
*Static
1., 1., 1e-05, 1.
** 
** BOUNDARY CONDITIONS
** 
** Name: bottom-fit Type: Displacement/Rotation
*Boundary
Set-2, 2, 2
** Name: left-fit Type: Displacement/Rotation
*Boundary
left-edge, 1, 1
** 
** LOADS
** 
** Name: Load-1   Type: Pressure
*Dsload
Surf-1, P, -10.
** 
** OUTPUT REQUESTS
** 
*Restart, write, frequency=0
** 
** FIELD OUTPUT: F-Output-1
** 
*Output, field, variable=PRESELECT
** 
** HISTORY OUTPUT: H-Output-1
** 
*Output, history, variable=PRESELECT
*End Step
