*Heading
** Job name: ellip_CPS8 Model name: Model-1
** Generated by: Abaqus/CAE 6.14-1
*Preprint, echo=NO, model=NO, history=NO, contact=NO
**
** PARTS
**
*Part, name=ellip_membrane
*End Part
**  
**
** ASSEMBLY
**
*Assembly, name=Assembly
**  
*Instance, name=ellip_membrane-1, part=ellip_membrane
*Node
      1,         3.25,           0.
      2,   3.20241785,  0.468848377
      3,   3.06311178,  0.919098437
      4,   2.84131694,   1.33505213
      5,   2.54955959,   1.70542419
      6,   2.20117235,   2.02323508
      7,   1.80870247,   2.28478694
      8,    1.3832624,   2.48848152
      9,  0.934499323,   2.63386512
     10,  0.470865607,    2.7209847
     11,           0.,         2.75
     12,        2.625,           0.
     13,   2.60147429,  0.378288627
     14,   2.50454998,  0.740508378
     15,   2.34405851,   1.07466662
     16,   2.13148427,   1.37342083
     17,   1.83809233,   1.66818869
     18,   1.50741196,    1.9109273
     19,   1.15073562,   2.10400534
     20,  0.776328444,   2.24915648
** ... 161 like lines cut
*Element, type=CPS8
 1,   1,   2,  13,  12,  67,  68,  69,  70
 2,   2,   3,  14,  13,  71,  72,  73,  68
 3,   3,   4,  15,  14,  74,  75,  76,  72
 4,   4,   5,  16,  15,  77,  78,  79,  75
 5,   5,   6,  17,  16,  80,  81,  82,  78
 6,   6,   7,  18,  17,  83,  84,  85,  81
 7,   7,   8,  19,  18,  86,  87,  88,  84
 8,   8,   9,  20,  19,  89,  90,  91,  87
 9,   9,  10,  21,  20,  92,  93,  94,  90
10,  10,  11,  22,  21,  95,  96,  97,  93
11,  12,  13,  24,  23,  69,  98,  99, 100
12,  13,  14,  25,  24,  73, 101, 102,  98
13,  14,  15,  26,  25,  76, 103, 104, 101
14,  15,  16,  27,  26,  79, 105, 106, 103
15,  16,  17,  28,  27,  82, 107, 108, 105
16,  17,  18,  29,  28,  85, 109, 110, 107
17,  18,  19,  30,  29,  88, 111, 112, 109
18,  19,  20,  31,  30,  91, 113, 114, 111
19,  20,  21,  32,  31,  94, 115, 116, 113
20,  21,  22,  33,  32,  97, 117, 118, 115
** ... 30 like lines cut
*Nset, nset=Set-1, generate
   1,  181,    1
*Elset, elset=Set-1, generate
  1,  50,   1
** Section: Section-1
*Solid Section, elset=Set-1, material=Material-1
,
*End Instance
**  
*Nset, nset=Set-2, instance=ellip_membrane-1
   1,  12,  23,  34,  45,  56,  70, 100, 121, 142, 163
*Elset, elset=Set-2, instance=ellip_membrane-1, generate
  1,  41,  10
*Nset, nset=Set-18, instance=ellip_membrane-1
 1,
*Nset, nset=Set-19, instance=ellip_membrane-1
 11, 66
*Nset, nset=left-edge, instance=ellip_membrane-1
  11,  22,  33,  44,  55,  66,  96, 117, 138, 159, 180
*Elset, elset=left-edge, instance=ellip_membrane-1, generate
 10,  50,  10
*Elset, elset=_Surf-1_S1, internal, instance=ellip_membrane-1, generate
  1,  10,   1
*Surface, type=ELEMENT, name=Surf-1
_Surf-1_S1, S1
*Elset, elset=_Surf-2_S1, internal, instance=ellip_membrane-1, generate
  1,  10,   1
*Surface, type=ELEMENT, name=Surf-2
_Surf-2_S1, S1
*End Assembly
** 
** MATERIALS
** 
*Material, name=Material-1
*Elastic
210000., 0.3
** ----------------------------------------------------------------
** 
** STEP: Step-1
** 
*Step, name=Step-1, nlgeom=NO
*Static
1., 1., 1e-05, 1.
** 
** BOUNDARY CONDITIONS
** 
** Name: bottom-fit Type: Displacement/Rotation
*Boundary
Set-2, 2, 2
** Name: left-fit Type: Displacement/Rotation
*Boundary
left-edge, 1, 1
** 
** LOADS
** 
** Name: Load-1   Type: Pressure
*Dsload
Surf-2, P, -10.
** 
** OUTPUT REQUESTS
** 
*Restart, write, frequency=0
** 
** FIELD OUTPUT: F-Output-1
** 
*Output, field, variable=PRESELECT
** 
** HISTORY OUTPUT: H-Output-1
** 
*Output, history, variable=PRESELECT
*End Step
