 Abaqus/Standard 6.14-1                  DATE 13-9ÔÂ-2022 TIME 00:22:04
 SUMMARY OF JOB INFORMATION:
 STEP  INC ATT SEVERE EQUIL TOTAL  TOTAL      STEP       INC OF       DOF    IF
               DISCON ITERS ITERS  TIME/    TIME/LPF    TIME/LPF    MONITOR RIKS
               ITERS               FREQ
   1     1   1U    0     1     1  0.000      0.000      1.000     
   1     1   2U    0     2     2  0.000      0.000      0.2500    
   1     1   3     0     4     4  0.0625     0.0625     0.06250   
   1     2   1     0     3     3  0.125      0.125      0.06250   
   1     3   1     0     4     4  0.219      0.219      0.09375   
   1     4   1     0     5     5  0.359      0.359      0.1406    
   1     5   1     0     6     6  0.500      0.500      0.1406    
   1     6   1     0     7     7  0.641      0.641      0.1406    
   1     7   1     0     9     9  0.781      0.781      0.1406    
   1     8   1U    0     6     6  0.781      0.781      0.1406    
   1     8   2     0    11    11  0.816      0.816      0.03516   
   1     9   1     0    10    10  0.843      0.843      0.02637   
   1    10   1     0    12    12  0.869      0.869      0.02637   
   1    11   1     0    14    14  0.889      0.889      0.01978   
   1    12   1     0    15    15  0.904      0.904      0.01483   
   1    13   1     0     1     1  0.915      0.915      0.01112   
   1    14   1     0     2     2  0.926      0.926      0.01112   
   1    15   1U    0    16    16  0.926      0.926      0.01669   
   1    15   2U    0    16    16  0.926      0.926      0.005000  
                          
 THE ANALYSIS HAS NOT BEEN COMPLETED
