*Heading
** Job name: cook_3d_linearEl_fix2sides_smallDef Model name: Model-1
** Generated by: Abaqus/CAE 6.14-1
*Preprint, echo=NO, model=NO, history=NO, contact=NO
**
** PARTS
**
*Part, name=Part-1
*End Part
**  
**
** ASSEMBLY
**
*Assembly, name=Assembly
**  
*Instance, name=Part-1-1, part=Part-1
*Node
      1,          48.,          44.,           5.
      2,           0.,           0.,           5.
      3,           0.,           0.,           0.
      4,          48.,          44.,           0.
      5,           0.,          44.,           5.
      6,           0.,          44.,           0.
      7,          48.,          60.,           0.
      8,          48.,          60.,           5.
      9,   44.3076935,   40.6153831,           5.
     10,   40.6153831,   37.2307701,           5.
     11,   36.9230766,   33.8461533,           5.
     12,   33.2307701,   30.4615383,           5.
     13,   29.5384617,   27.0769234,           5.
     14,   25.8461533,   23.6923084,           5.
     15,   22.1538467,   20.3076916,           5.
     16,   18.4615383,   16.9230766,           5.
     17,   14.7692308,   13.5384617,           5.
     18,   11.0769234,   10.1538458,           5.
     19,   7.38461542,   6.76923084,           5.
     20,   3.69230771,   3.38461542,           5.
** ... 171 like lines cut
*Element, type=C3D4
  1, 170,  17,  24,  16
  2, 170, 171,  89, 105
  3, 170,  25,  24,  88
  4, 170, 142,  88,  17
  5, 170,  89,  16,  25
  6, 172, 102, 157, 151
  7,  76, 131, 173, 130
  8, 138, 137, 107, 150
  9, 172, 102, 174,  93
 10, 172, 150, 112, 107
 11, 170, 175, 142, 156
 12, 170, 171, 175, 156
 13, 171, 175, 156, 176
 14, 171, 105, 175, 176
 15, 170,  88, 105,  89
 16, 171, 176, 166, 118
 17, 171, 177,  89, 101
 18, 101, 163, 118, 171
 19, 155, 106, 177, 152
 20, 106, 178, 152, 155
** ... 517 like lines cut
*Nset, nset=Set-1, generate
   1,  191,    1
*Elset, elset=Set-1, generate
   1,  537,    1
** Section: Section-1
*Solid Section, elset=Set-1, controls=EC-1, material=Material-1
,
*End Instance
**  
*Nset, nset=back_face, instance=Part-1-1
   3,   4,   6,   7,  21,  22,  23,  24,  25,  26,  27,  28,  29,  30,  31,  32
  41,  42,  43,  44,  45,  46,  47,  48,  49,  50,  51,  52,  53,  54,  55,  56
  57,  58,  59,  71,  72,  73,  74,  75,  76,  77,  78,  79,  80,  81,  82,  83
  84,  85,  86,  87,  88,  89,  90,  91,  92,  93,  94,  95,  96,  97,  98,  99
 100, 101, 102, 103, 104, 105, 106, 107, 108, 109, 110, 111, 112, 113, 114, 115
 116, 117, 118, 119
*Elset, elset=back_face, instance=Part-1-1
   3,  15,  46,  50,  65,  80, 101, 104, 107, 134, 138, 139, 143, 167, 171, 174
 178, 179, 189, 200, 204, 213, 215, 221, 231, 236, 237, 249, 271, 273, 285, 286
 287, 290, 294, 296, 300, 301, 304, 308, 309, 310, 311, 312, 313, 315, 317, 318
 319, 322, 325, 328, 330, 336, 337, 338, 341, 343, 344, 347, 349, 352, 353, 361
 362, 368, 369, 370, 371, 374, 376, 377, 379, 382, 383, 384, 393, 396, 398, 399
 400, 401, 402, 403, 406, 407, 411, 412, 417, 418, 423, 426, 427, 428, 431, 437
 439, 442, 443, 446, 447, 448, 451, 456, 458, 459, 463, 465, 467, 470, 472, 473
 474, 476, 485, 486, 493, 497, 502, 506, 510, 511, 512, 513, 514, 517, 520, 521
 523, 526, 536
*Nset, nset=front_face, instance=Part-1-1
   1,   2,   5,   8,   9,  10,  11,  12,  13,  14,  15,  16,  17,  18,  19,  20
  33,  34,  35,  36,  37,  38,  39,  40,  60,  61,  62,  63,  64,  65,  66,  67
  68,  69,  70, 120, 121, 122, 123, 124, 125, 126, 127, 128, 129, 130, 131, 132
 133, 134, 135, 136, 137, 138, 139, 140, 141, 142, 143, 144, 145, 146, 147, 148
 149, 150, 151, 152, 153, 154, 155, 156, 157, 158, 159, 160, 161, 162, 163, 164
 165, 166, 167, 168, 169
*Elset, elset=front_face, instance=Part-1-1
   8,  21,  34,  35,  45,  47,  57,  67,  68,  79,  83,  92,  93,  98, 100, 105
 109, 115, 116, 118, 124, 128, 129, 130, 133, 136, 137, 141, 142, 145, 151, 153
 164, 166, 170, 175, 176, 182, 185, 186, 188, 191, 192, 198, 199, 206, 211, 214
 216, 217, 218, 220, 222, 224, 226, 229, 234, 235, 240, 241, 242, 243, 244, 245
 247, 250, 251, 252, 254, 256, 259, 260, 269, 272, 275, 276, 277, 280, 281, 288
 289, 298, 305, 306, 307, 326, 329, 335, 342, 345, 354, 355, 360, 365, 366, 372
 380, 386, 387, 389, 390, 391, 395, 405, 409, 419, 422, 424, 429, 430, 434, 436
 440, 450, 455, 457, 461, 464, 469, 477, 479, 480, 484, 487, 491, 496, 498, 503
 504, 505, 524, 525, 537
*Nset, nset=left_face, instance=Part-1-1
  2,  3,  5,  6, 33, 34, 35, 36, 37, 38, 39, 40, 41, 42, 43, 44
 45, 46, 47, 48
*Elset, elset=left_face, instance=Part-1-1
  44,  63, 102, 216, 230, 420, 437, 438, 440, 449, 451, 459, 469, 475, 476, 484
 524, 527
*Elset, elset=_right_face_S3, internal, instance=Part-1-1
 303, 307, 405, 530
*Elset, elset=_right_face_S4, internal, instance=Part-1-1
 304,
*Elset, elset=_right_face_S1, internal, instance=Part-1-1
 413,
*Surface, type=ELEMENT, name=right_face
_right_face_S3, S3
_right_face_S4, S4
_right_face_S1, S1
*End Assembly
** 
** ELEMENT CONTROLS
** 
*Section Controls, name=EC-1, second order accuracy=YES
1., 1., 1.
** 
** MATERIALS
** 
*Material, name=Material-1
*Hyperelastic, neo hooke
    0.4, 0.05
**  C1,  1./D1
** 
** BOUNDARY CONDITIONS
** 
** Name: fix_front Type: Displacement/Rotation
*Boundary
front_face, 3, 3
** ----------------------------------------------------------------
** 
** STEP: Step-1
** 
*Step, name=Step-1, nlgeom=YES
*Static
1., 1., 1e-05, 1.
** 
** BOUNDARY CONDITIONS
** 
** Name: fix_back Type: Displacement/Rotation
*Boundary
back_face, 3, 3
** Name: fix_left Type: Displacement/Rotation
*Boundary
left_face, 1, 1
left_face, 2, 2
** 
** LOADS
** 
** Name: load_right   Type: Surface traction
*Dsload, follower=NO
right_face, TRVEC, 0.0625, 0., 1., 0.
** 
** OUTPUT REQUESTS
** 
*Restart, write, frequency=0
** 
** FIELD OUTPUT: F-Output-1
** 
*Output, field, variable=PRESELECT
** 
** HISTORY OUTPUT: H-Output-1
** 
*Output, history, variable=PRESELECT
*End Step
