*Heading
** Job name: cook_3d_quadEl_smallDef_fix2sides Model name: Model-1
** Generated by: Abaqus/CAE 6.14-1
*Preprint, echo=NO, model=NO, history=NO, contact=NO
**
** PARTS
**
*Part, name=Part-1
*End Part
**  
**
** ASSEMBLY
**
*Assembly, name=Assembly
**  
*Instance, name=Part-1-1, part=Part-1
*Node
      1,          48.,          44.,           5.
      2,           0.,           0.,           5.
      3,           0.,           0.,           0.
      4,          48.,          44.,           0.
      5,           0.,          44.,           5.
      6,           0.,          44.,           0.
      7,          48.,          60.,           0.
      8,          48.,          60.,           5.
      9,   41.1428566,   37.7142868,           5.
     10,   34.2857132,   31.4285717,           5.
     11,   27.4285717,   25.1428566,           5.
     12,   20.5714283,   18.8571434,           5.
     13,   13.7142859,   12.5714283,           5.
     14,   6.85714293,   6.28571415,           5.
     15,   6.85714293,   6.28571415,           0.
     16,   13.7142859,   12.5714283,           0.
     17,   20.5714283,   18.8571434,           0.
     18,   27.4285717,   25.1428566,           0.
     19,   34.2857132,   31.4285717,           0.
     20,   41.1428566,   37.7142868,           0.
** ... 242 like lines cut
*Element, type=C3D10
  1,  41,  38,  52,  19,  57,  56,  55,  59,  58,  60
  2,  54,  46,  20,  38,  63,  62,  61,  65,  64,  66
  3,  49,  46,  38,  29,  68,  64,  67,  70,  69,  71
  4,  51,  12,  17,  53,  74,  73,  72,  76,  75,  77
  5,  12,  50,  16,  13,  80,  79,  78,  82,  81,  83
  6,  36,  47,  48,  42,  86,  85,  84,  88,  87,  89
  7,  48,  53,  40,  42,  92,  91,  90,  89,  93,  94
  8,  51,  45,  48,  40,  97,  96,  95,  99,  98,  90
  9,  45,  22,  39,  51, 102, 101, 100,  97, 103, 104
 10,  47,  41,  53,  42, 107, 106, 105,  87, 108,  93
 11,  42,  48,  36,  43,  89,  84,  88, 110, 109, 111
 12,  52,  41,  19,  18,  55,  59,  60, 113, 112, 114
 13,  36,  27,  28,  42, 117, 116, 115,  88, 118, 119
 14,  51,  40,  48,  53,  99,  90,  95,  76,  91,  92
 15,  48,  40,  45,  43,  90,  98,  96, 109, 120, 121
 16,  18,  53,  52,  41, 123, 122, 113, 112, 106,  55
 17,  49,  54,  38,  46, 124,  65,  67,  68,  63,  64
 18,  48,  53,  42,  47,  92,  93,  89,  85, 105,  87
 19,  46,  37,  33,  32, 127, 126, 125, 129, 128, 130
 20,  33,  30,  37,  46, 132, 131, 126, 125, 133, 127
** ... 83 like lines cut
*Nset, nset=Set-1, generate
   1,  262,    1
*Elset, elset=Set-1, generate
   1,  103,    1
** Section: Section-1
*Solid Section, elset=Set-1, material=Material-1
,
*End Instance
**  
*Nset, nset=back_face, instance=Part-1-1
   3,   4,   6,   7,  15,  16,  17,  18,  19,  20,  24,  25,  26,  27,  28,  29
  30,  31,  37,  38,  39,  40,  41,  42,  43,  44,  45,  57,  58,  59,  66,  71
  94,  98, 100, 108, 110, 112, 114, 116, 118, 119, 120, 121, 131, 141, 147, 149
 150, 153, 157, 158, 159, 160, 162, 163, 164, 167, 169, 171, 172, 173, 174, 175
 179, 186, 187, 188, 191, 198, 213, 214, 215, 223, 224, 225, 234, 235, 236, 237
 238, 239, 243, 245, 254, 258, 261
*Elset, elset=back_face, instance=Part-1-1
   1,  12,  13,  15,  24,  26,  27,  28,  29,  30,  34,  35,  37,  41,  42,  43
  44,  45,  54,  55,  58,  62,  63,  68,  73,  79,  80,  81,  84,  87,  95,  96
 100, 101
*Nset, nset=front_face, instance=Part-1-1
   1,   2,   5,   8,   9,  10,  11,  12,  13,  14,  21,  22,  23,  32,  33,  34
  35,  36,  46,  47,  48,  49,  50,  51,  52,  53,  54,  63,  68,  74,  75,  76
  80,  81,  82,  84,  85,  86,  92,  95, 103, 105, 122, 124, 125, 129, 130, 134
 138, 143, 144, 145, 151, 165, 176, 180, 181, 183, 185, 193, 194, 195, 200, 202
 204, 207, 209, 211, 216, 220, 221, 228, 229, 232, 233, 241, 244, 247, 249, 250
 251, 252, 253, 255, 256, 257, 260
*Elset, elset=front_face, instance=Part-1-1
   4,   5,   6,  14,  17,  18,  19,  21,  23,  31,  39,  40,  46,  48,  51,  52
  56,  57,  59,  60,  61,  67,  72,  74,  75,  76,  78,  82,  83,  90,  91,  92
  94, 103
*Nset, nset=left_face, instance=Part-1-1
   2,   3,   5,   6,  21,  22,  23,  24,  25,  26, 161, 189, 194, 196, 197, 199
 200, 203, 204, 214, 215, 219, 225, 227, 228, 243, 259
*Elset, elset=left_face, instance=Part-1-1
 46, 47, 49, 54, 55, 59, 65, 89
*Elset, elset=_right_face_S3, internal, instance=Part-1-1
 21,
*Elset, elset=_right_face_S4, internal, instance=Part-1-1
 33,
*Elset, elset=_right_face_S2, internal, instance=Part-1-1
 34,
*Elset, elset=_right_face_S1, internal, instance=Part-1-1
 99,
*Surface, type=ELEMENT, name=right_face
_right_face_S3, S3
_right_face_S4, S4
_right_face_S2, S2
_right_face_S1, S1
*End Assembly
** 
** MATERIALS
** 
*Material, name=Material-1
*Elastic
70., 0.3333
** 
** BOUNDARY CONDITIONS
** 
** Name: fix_front Type: Displacement/Rotation
*Boundary
front_face, 3, 3
** ----------------------------------------------------------------
** 
** STEP: Step-1
** 
*Step, name=Step-1, nlgeom=NO
*Static
1., 1., 1e-05, 1.
** 
** BOUNDARY CONDITIONS
** 
** Name: fix_back Type: Displacement/Rotation
*Boundary
back_face, 3, 3
** Name: fix_left Type: Displacement/Rotation
*Boundary
left_face, 1, 1
left_face, 2, 2
** 
** LOADS
** 
** Name: load_right   Type: Surface traction
*Dsload, follower=NO
right_face, TRVEC, 6.25, 0., 1., 0.
** 
** OUTPUT REQUESTS
** 
*Restart, write, frequency=0
** 
** FIELD OUTPUT: F-Output-1
** 
*Output, field, variable=PRESELECT
** 
** HISTORY OUTPUT: H-Output-1
** 
*Output, history, variable=PRESELECT
*End Step
