*Heading
** Job name: ellip_dense_CPS3_0d04 Model name: Model-1
** Generated by: Abaqus/CAE 6.14-1
*Preprint, echo=NO, model=NO, history=NO, contact=NO
**
** PARTS
**
*Part, name=ellip_membrane
*End Part
**  
**
** ASSEMBLY
**
*Assembly, name=Assembly
**  
*Instance, name=ellip_membrane-1, part=ellip_membrane
*Node
      1,    3.2486248, 0.0799939558
      2,   3.24141264,  0.199778363
      3,    3.2331872,  0.279360235
      4,    3.2222476,  0.358614624
      5,   3.20861721,  0.437450886
      6,   3.18319106,  0.554728091
      7,   3.16297102,  0.632136822
      8,   3.14018273,  0.708828807
      9,    3.1148715,  0.784725547
     10,   3.07228208,  0.896916389
     11,   3.04088521,  0.970504701
     12,   3.00715113,   1.04305148
     13,   2.95229793,   1.14978468
     14,   2.91298461,   1.21946609
     15,   2.87154937,   1.28790724
     16,   2.80556011,   1.38813925
     17,   2.75910497,   1.45327759
     18,   2.71075678,   1.51702368
     19,   2.63482976,   1.60995579
     20,   2.58203745,   1.67007327
** ... 3701 like lines cut
*Element, type=CPS3
   1, 1011,  994,  859
   2, 1483, 1321, 1395
   3, 1558,  137, 1521
   4, 1910, 1894, 1838
   5, 2421, 2234, 2396
   6, 2741, 2698, 2516
   7, 2724, 2586,  218
   8, 3020, 2846, 2932
   9, 3338, 3278,  236
  10, 3211, 2965, 3147
  11, 3371, 3342, 3314
  12, 3367,  300, 3293
  13, 3369, 3302, 3329
  14, 3409, 3197, 3355
  15, 3430,  394, 3366
  16, 3538, 3504,  429
  17, 3587, 3502,  463
  18, 3553, 3436, 3475
  19, 3620, 3554, 3593
  20, 3447, 3411,  562
** ... 7165 like lines cut
*Nset, nset=Set-1, generate
    1,  3721,     1
*Elset, elset=Set-1, generate
    1,  7185,     1
** Section: Section-1
*Solid Section, elset=Set-1, controls=EC-1, material=Material-1
,
*End Instance
**  
*Nset, nset=Set-2, instance=ellip_membrane-1
  55, 106, 107, 108, 109, 110, 111, 112, 113, 114, 115, 116, 117, 118, 119, 977
 978, 979, 980, 981, 982, 983, 984, 985, 986, 987, 988, 989, 990, 991, 992, 993
 994,
*Elset, elset=Set-2, instance=ellip_membrane-1
  559,  561,  587,  598,  608,  617,  625,  637, 1711, 1714, 1726, 1727, 1731, 1765, 1767, 1768
 1771, 1773, 1774, 1776, 1778, 1780, 1785, 1787, 1788, 1791, 1794, 1796, 1810, 1813, 1814, 1818
*Nset, nset=Set-18, instance=ellip_membrane-1
 55,
*Nset, nset=Set-19, instance=ellip_membrane-1
 56, 76
*Nset, nset=left-edge, instance=ellip_membrane-1
  56,  57,  58,  59,  60,  61,  62,  63,  64,  65,  66,  67,  68,  69,  70,  71
  72,  73,  74,  75,  76, 922, 923, 924, 925, 926, 927, 928, 929, 930, 931, 932
 933, 934, 935, 936, 937, 938, 939, 940, 941, 942, 943, 944, 945
*Elset, elset=left-edge, instance=ellip_membrane-1
 1535, 1555, 1666, 1670, 1671, 1672, 1673, 1674, 1675, 1677, 1681, 1690, 1827, 1829, 1834, 1838
 1841, 1842, 1843, 1844, 1845, 1846, 1847, 1849, 1850, 1851, 1852, 1853, 1854, 1855, 1856, 1857
 1858, 1859, 1860, 1861, 1862, 1872, 1886, 1891, 1893, 1901, 1902, 1905
*Elset, elset=_Surf-1_S2, internal, instance=ellip_membrane-1
   35,   83,   84,  109,  129,  131,  132,  139,  226,  233,  240,  241,  253,  258,  259,  265
  278,  287,  289,  304,  313,  336,  719,  747,  776,  998, 1128, 1536, 1599, 1608, 1614, 1617
 1618, 1619, 1623, 1625, 1626, 1628, 1630, 1635, 1636, 1638, 1642, 1647, 1649, 1651, 1653, 1657
 1661, 1662, 1663, 1664, 1730, 1731, 1735, 1908, 1918, 1923, 1924, 1931, 1932, 1935, 1938, 1941
 1942, 1947, 1948, 1952, 1954, 1959, 1960, 1962, 1966, 1968, 1972, 1974, 1978, 1982, 1986, 1991
 1992, 1993, 1994, 1998, 2005, 2009, 2013, 2021, 2027, 2033, 2036, 2041, 2050, 2053, 2054, 2057
 2058, 2066, 2139, 2430, 2445, 2549
*Elset, elset=_Surf-1_S3, internal, instance=ellip_membrane-1
 239, 288
*Elset, elset=_Surf-1_S1, internal, instance=ellip_membrane-1
  290, 1620, 1621, 1622, 1624, 1629, 1631, 1643, 1645, 1648, 1652, 1659, 1660, 1666
*Surface, type=ELEMENT, name=Surf-1
_Surf-1_S2, S2
_Surf-1_S3, S3
_Surf-1_S1, S1
*Elset, elset=_Surf-2_S2, internal, instance=ellip_membrane-1
   35,   83,   84,  109,  129,  131,  132,  139,  226,  233,  240,  241,  253,  258,  259,  265
  278,  287,  289,  304,  313,  336,  719,  747,  776,  998, 1128, 1536, 1599, 1608, 1614, 1617
 1618, 1619, 1623, 1625, 1626, 1628, 1630, 1635, 1636, 1638, 1642, 1647, 1649, 1651, 1653, 1657
 1661, 1662, 1663, 1664, 1730, 1731, 1735, 1908, 1918, 1923, 1924, 1931, 1932, 1935, 1938, 1941
 1942, 1947, 1948, 1952, 1954, 1959, 1960, 1962, 1966, 1968, 1972, 1974, 1978, 1982, 1986, 1991
 1992, 1993, 1994, 1998, 2005, 2009, 2013, 2021, 2027, 2033, 2036, 2041, 2050, 2053, 2054, 2057
 2058, 2066, 2139, 2430, 2445, 2549
*Elset, elset=_Surf-2_S3, internal, instance=ellip_membrane-1
 239, 288
*Elset, elset=_Surf-2_S1, internal, instance=ellip_membrane-1
  290, 1620, 1621, 1622, 1624, 1629, 1631, 1643, 1645, 1648, 1652, 1659, 1660, 1666
*Surface, type=ELEMENT, name=Surf-2
_Surf-2_S2, S2
_Surf-2_S3, S3
_Surf-2_S1, S1
*End Assembly
** 
** ELEMENT CONTROLS
** 
*Section Controls, name=EC-1, second order accuracy=YES
1., 1., 1.
** 
** MATERIALS
** 
*Material, name=Material-1
*Elastic
210000., 0.3
** ----------------------------------------------------------------
** 
** STEP: Step-1
** 
*Step, name=Step-1, nlgeom=NO
*Static
1., 1., 1e-05, 1.
** 
** BOUNDARY CONDITIONS
** 
** Name: bottom-fit Type: Displacement/Rotation
*Boundary
Set-2, 2, 2
** Name: left-fit Type: Displacement/Rotation
*Boundary
left-edge, 1, 1
** 
** LOADS
** 
** Name: Load-1   Type: Pressure
*Dsload
Surf-2, P, -10.
** 
** OUTPUT REQUESTS
** 
*Restart, write, frequency=0
** 
** FIELD OUTPUT: F-Output-1
** 
*Output, field, variable=PRESELECT
** 
** HISTORY OUTPUT: H-Output-1
** 
*Output, history, variable=PRESELECT
*End Step
