*Heading
** Job name: ellip_membrane_quadritic_trig_neumann Model name: Model-1
** Generated by: Abaqus/CAE 6.14-1
*Preprint, echo=NO, model=NO, history=NO, contact=NO
**
** PARTS
**
*Part, name=ellip_membrane
*End Part
**  
**
** ASSEMBLY
**
*Assembly, name=Assembly
**  
*Instance, name=ellip_membrane-1, part=ellip_membrane
*Node
      1,         3.25,           0.
      2,   3.20241785,  0.468848377
      3,   3.06311178,  0.919098437
      4,   2.84131694,   1.33505213
      5,   2.54955959,   1.70542419
      6,   2.20117235,   2.02323508
      7,   1.80870247,   2.28478694
      8,    1.3832624,   2.48848152
      9,  0.934499323,   2.63386512
     10,  0.470865607,    2.7209847
     11,           0.,         2.75
     12,        2.625,           0.
     13,   2.60147429,  0.378288627
     14,   2.50454998,  0.740508378
     15,   2.34405851,   1.07466662
     16,   2.13148427,   1.37342083
     17,   1.83809233,   1.66818869
     18,   1.50741196,    1.9109273
     19,   1.15073562,   2.10400534
     20,  0.776328444,   2.24915648
** ... 211 like lines cut
*Element, type=CPS6
  1,   1,   2,  13,  67,  68,  69
  2,  13,  12,   1,  70,  71,  69
  3,   2,   3,  14,  72,  73,  74
  4,  14,  13,   2,  75,  68,  74
  5,   3,   4,  15,  76,  77,  78
  6,  15,  14,   3,  79,  73,  78
  7,   4,   5,  16,  80,  81,  82
  8,  16,  15,   4,  83,  77,  82
  9,   5,   6,  17,  84,  85,  86
 10,  17,  16,   5,  87,  81,  86
 11,   6,   7,  18,  88,  89,  90
 12,  18,  17,   6,  91,  85,  90
 13,   7,   8,  19,  92,  93,  94
 14,  19,  18,   7,  95,  89,  94
 15,   8,   9,  20,  96,  97,  98
 16,  20,  19,   8,  99,  93,  98
 17,   9,  10,  21, 100, 101, 102
 18,  21,  20,   9, 103,  97, 102
 19,  10,  11,  22, 104, 105, 106
 20,  22,  21,  10, 107, 101, 106
** ... 80 like lines cut
*Nset, nset=Set-1, generate
   1,  231,    1
*Elset, elset=Set-1, generate
   1,  100,    1
** Section: Section-1
*Solid Section, elset=Set-1, controls=EC-1, material=Material-1
,
*End Instance
**  
*Nset, nset=Set-2, instance=ellip_membrane-1
   1,  12,  23,  34,  45,  56,  71, 111, 142, 173, 204
*Elset, elset=Set-2, instance=ellip_membrane-1, generate
  2,  82,  20
*Nset, nset=Set-18, instance=ellip_membrane-1
 1,
*Nset, nset=Set-19, instance=ellip_membrane-1
 11, 66
*Nset, nset=left-edge, instance=ellip_membrane-1
  11,  22,  33,  44,  55,  66, 105, 136, 167, 198, 229
*Elset, elset=left-edge, instance=ellip_membrane-1, generate
 19,  99,  20
*Elset, elset=_Surf-1_S1, internal, instance=ellip_membrane-1, generate
  1,  19,   2
*Surface, type=ELEMENT, name=Surf-1
_Surf-1_S1, S1
*Elset, elset=_Surf-2_S1, internal, instance=ellip_membrane-1, generate
  1,  19,   2
*Surface, type=ELEMENT, name=Surf-2
_Surf-2_S1, S1
*End Assembly
** 
** ELEMENT CONTROLS
** 
*Section Controls, name=EC-1, second order accuracy=YES
1., 1., 1.
** 
** MATERIALS
** 
*Material, name=Material-1
*Elastic
210000., 0.3
** ----------------------------------------------------------------
** 
** STEP: Step-1
** 
*Step, name=Step-1, nlgeom=NO
*Static
1., 1., 1e-05, 1.
** 
** BOUNDARY CONDITIONS
** 
** Name: bottom-fit Type: Displacement/Rotation
*Boundary
Set-2, 2, 2
** Name: left-fit Type: Displacement/Rotation
*Boundary
left-edge, 1, 1
** 
** LOADS
** 
** Name: Load-1   Type: Pressure
*Dsload
Surf-2, P, -10.
** 
** OUTPUT REQUESTS
** 
*Restart, write, frequency=0
** 
** FIELD OUTPUT: F-Output-1
** 
*Output, field, variable=PRESELECT
** 
** HISTORY OUTPUT: H-Output-1
** 
*Output, history, variable=PRESELECT
*End Step
