*Heading
** Job name: beam_CPS6_disp_meshSize10 Model name: Model-1
** Generated by: Abaqus/CAE 6.14-1
*Preprint, echo=NO, model=NO, history=NO, contact=NO
**
** PARTS
**
*Part, name=beamDeflec
*End Part
**  
**
** ASSEMBLY
**
*Assembly, name=Assembly
**  
*Instance, name=beamDeflec-1, part=beamDeflec
*Node
      1,           0.,           0.
      2,          10.,           0.
      3,          20.,           0.
      4,          30.,           0.
      5,          40.,           0.
      6,           0.,           2.
      7,          10.,           2.
      8,          20.,           2.
      9,          30.,           2.
     10,          40.,           2.
     11,           0.,           4.
     12,          10.,           4.
     13,          20.,           4.
     14,          30.,           4.
     15,          40.,           4.
     16,           5.,           0.
     17,          10.,           1.
     18,           5.,           1.
     19,           5.,           2.
     20,           0.,           1.
** ... 25 like lines cut
*Element, type=CPS6M
 1,  1,  2,  7, 16, 17, 18
 2,  7,  6,  1, 19, 20, 18
 3,  2,  3,  8, 21, 22, 23
 4,  8,  7,  2, 24, 17, 23
 5,  3,  4,  9, 25, 26, 27
 6,  9,  8,  3, 28, 22, 27
 7,  4,  5, 10, 29, 30, 31
 8, 10,  9,  4, 32, 26, 31
 9,  6,  7, 12, 19, 33, 34
10, 12, 11,  6, 35, 36, 34
11,  7,  8, 13, 24, 37, 38
12, 13, 12,  7, 39, 33, 38
13,  8,  9, 14, 28, 40, 41
14, 14, 13,  8, 42, 37, 41
15,  9, 10, 15, 32, 43, 44
16, 15, 14,  9, 45, 40, 44
*Nset, nset=Set-1, generate
  1,  45,   1
*Elset, elset=Set-1, generate
  1,  16,   1
** Section: Section-1
*Solid Section, elset=Set-1, material=Material-1
,
*End Instance
**  
*Nset, nset=left_face, instance=beamDeflec-1
  1,  6, 11, 20, 36
*Elset, elset=left_face, instance=beamDeflec-1
  2, 10
*Nset, nset=right_disp, instance=beamDeflec-1
  5, 10, 15, 30, 43
*Elset, elset=right_disp, instance=beamDeflec-1
  7, 15
*Nset, nset=right_side, instance=beamDeflec-1
  5, 10, 15, 30, 43
*Elset, elset=right_side, instance=beamDeflec-1
  7, 15
*Elset, elset=_right_face_S2, internal, instance=beamDeflec-1
  7, 15
*Surface, type=ELEMENT, name=right_face
_right_face_S2, S2
*End Assembly
** 
** MATERIALS
** 
*Material, name=Material-1
*Elastic
200000., 0.3
** 
** BOUNDARY CONDITIONS
** 
** Name: right_fix_x Type: Displacement/Rotation
*Boundary
right_side, 1, 1
** ----------------------------------------------------------------
** 
** STEP: Step-1
** 
*Step, name=Step-1, nlgeom=YES
*Static
0.25, 1., 1e-05, 0.25
** 
** BOUNDARY CONDITIONS
** 
** Name: left_fix Type: Displacement/Rotation
*Boundary
left_face, 1, 1
left_face, 2, 2
** Name: right_disp Type: Displacement/Rotation
*Boundary
right_disp, 2, 2, 20.
** 
** OUTPUT REQUESTS
** 
*Restart, write, frequency=0
** 
** FIELD OUTPUT: F-Output-1
** 
*Output, field, variable=PRESELECT
** 
** HISTORY OUTPUT: H-Output-1
** 
*Output, history, variable=PRESELECT
*End Step
