*Heading
** Job name: beam_CPS3_disp_meshSize5 Model name: Model-1
** Generated by: Abaqus/CAE 6.14-1
*Preprint, echo=NO, model=NO, history=NO, contact=NO
**
** PARTS
**
*Part, name=beamDeflec
*End Part
**  
**
** ASSEMBLY
**
*Assembly, name=Assembly
**  
*Instance, name=beamDeflec-1, part=beamDeflec
*Node
      1,           0.,           0.
      2,           5.,           0.
      3,          10.,           0.
      4,          15.,           0.
      5,          20.,           0.
      6,          25.,           0.
      7,          30.,           0.
      8,          35.,           0.
      9,          40.,           0.
     10,           0.,           1.
     11,           5.,           1.
     12,          10.,           1.
     13,          15.,           1.
     14,          20.,           1.
     15,          25.,           1.
     16,          30.,           1.
     17,          35.,           1.
     18,          40.,           1.
     19,           0.,           2.
     20,           5.,           2.
** ... 25 like lines cut
*Element, type=CPS3
 1,  1,  2, 11
 2, 11, 10,  1
 3,  2,  3, 12
 4, 12, 11,  2
 5,  3,  4, 13
 6, 13, 12,  3
 7,  4,  5, 14
 8, 14, 13,  4
 9,  5,  6, 15
10, 15, 14,  5
11,  6,  7, 16
12, 16, 15,  6
13,  7,  8, 17
14, 17, 16,  7
15,  8,  9, 18
16, 18, 17,  8
17, 10, 11, 20
18, 20, 19, 10
19, 11, 12, 21
20, 21, 20, 11
** ... 44 like lines cut
*Nset, nset=Set-1, generate
  1,  45,   1
*Elset, elset=Set-1, generate
  1,  64,   1
** Section: Section-1
*Solid Section, elset=Set-1, controls=EC-1, material=Material-1
,
*End Instance
**  
*Nset, nset=left_face, instance=beamDeflec-1, generate
  1,  37,   9
*Elset, elset=left_face, instance=beamDeflec-1, generate
  2,  50,  16
*Nset, nset=right_disp, instance=beamDeflec-1, generate
  9,  45,   9
*Elset, elset=right_disp, instance=beamDeflec-1, generate
 15,  63,  16
*Nset, nset=right_side, instance=beamDeflec-1, generate
  9,  45,   9
*Elset, elset=right_side, instance=beamDeflec-1, generate
 15,  63,  16
*Elset, elset=_right_face_S2, internal, instance=beamDeflec-1, generate
 15,  63,  16
*Surface, type=ELEMENT, name=right_face
_right_face_S2, S2
*End Assembly
** 
** ELEMENT CONTROLS
** 
*Section Controls, name=EC-1, second order accuracy=YES
1., 1., 1.
** 
** MATERIALS
** 
*Material, name=Material-1
*Elastic
200000., 0.3
** 
** BOUNDARY CONDITIONS
** 
** Name: right_fix_x Type: Displacement/Rotation
*Boundary
right_side, 1, 1
** ----------------------------------------------------------------
** 
** STEP: Step-1
** 
*Step, name=Step-1, nlgeom=YES
*Static
0.25, 1., 1e-05, 0.25
** 
** BOUNDARY CONDITIONS
** 
** Name: left_fix Type: Displacement/Rotation
*Boundary
left_face, 1, 1
left_face, 2, 2
** Name: right_disp Type: Displacement/Rotation
*Boundary
right_disp, 2, 2, 20.
** 
** OUTPUT REQUESTS
** 
*Restart, write, frequency=0
** 
** FIELD OUTPUT: F-Output-1
** 
*Output, field, variable=PRESELECT
** 
** HISTORY OUTPUT: H-Output-1
** 
*Output, history, variable=PRESELECT
*End Step
