*Heading
** Job name: cook_membrane_2d_pe Model name: Model-1
** Generated by: Abaqus/CAE 6.14-1
*Preprint, echo=NO, model=NO, history=NO, contact=NO
**
** PARTS
**
*Part, name=cook_membrane_2d
*End Part
**  
**
** ASSEMBLY
**
*Assembly, name=Assembly
**  
*Instance, name=cook_membrane_2d-1, part=cook_membrane_2d
*Node
      1,           0.,          44.
      2,           0.,           0.
      3,          48.,          44.
      4,          48.,          60.
      5,           0.,          42.
      6,           0.,          40.
      7,           0.,          38.
      8,           0.,          36.
      9,           0.,          34.
     10,           0.,          32.
     11,           0.,          30.
     12,           0.,          28.
     13,           0.,          26.
     14,           0.,          24.
     15,           0.,          22.
     16,           0.,          20.
     17,           0.,          18.
     18,           0.,          16.
     19,           0.,          14.
     20,           0.,          12.
** ... 1729 like lines cut
*Element, type=CPE6
  1,  154,   77,   78,  461,  462,  463
  2,  147,   70,   71,  464,  465,  466
  3,  248,  244,  191,  467,  468,  469
  4,  158,  156,   81,  470,  471,  472
  5,  157,   43,   44,  473,  474,  475
  6,  404,  368,  400,  476,  477,  478
  7,   96,   95,   10,  479,  480,  481
  8,   97,   96,   11,  482,  483,  484
  9,  251,  178,  239,  485,  486,  487
 10,   99,   37,   98,  488,  489,  490
 11,  100,   36,   99,  491,  492,  493
 12,  101,   35,  100,  494,  495,  496
 13,  102,   34,  101,  497,  498,  499
 14,  103,   33,  102,  500,  501,  502
 15,  104,   32,  103,  503,  504,  505
 16,  105,   31,  104,  506,  507,  508
 17,  238,  206,  174,  509,  510,  511
 18,  206,  198,  174,  512,  513,  510
 19,  108,  107,   22,  514,  515,  516
 20,  109,   24,   89,  517,  518,  519
** ... 810 like lines cut
*Nset, nset=Set-1, generate
    1,  1749,     1
*Elset, elset=Set-1, generate
   1,  830,    1
** Section: Section-1
*Solid Section, elset=Set-1, controls=EC-1, material=Material-1
,
*End Instance
**  
*Nset, nset=left_face, instance=cook_membrane_2d-1
   1,   2,   5,   6,   7,   8,   9,  10,  11,  12,  13,  14,  15,  16,  17,  18
  19,  20,  21,  22,  23,  24,  25, 526, 708, 710, 733, 734, 735, 739, 774, 775
 776, 779, 790, 794, 795, 799, 801, 805, 810, 832, 835, 970, 976
*Elset, elset=left_face, instance=cook_membrane_2d-1
  23,  86,  87,  99, 100, 101, 103, 121, 122, 123, 125, 134, 136, 138, 140, 142
 144, 146, 158, 160, 236, 240
*Elset, elset=_right_face_S2, internal, instance=cook_membrane_2d-1
  51,  55, 184, 189, 191, 193, 198
*Elset, elset=_right_face_S1, internal, instance=cook_membrane_2d-1
 62,
*Surface, type=ELEMENT, name=right_face
_right_face_S2, S2
_right_face_S1, S1
*End Assembly
** 
** ELEMENT CONTROLS
** 
*Section Controls, name=EC-1, second order accuracy=YES
1., 1., 1.
** 
** MATERIALS
** 
*Material, name=Material-1
*Elastic
70., 0.4999
** ----------------------------------------------------------------
** 
** STEP: Step-1
** 
*Step, name=Step-1, nlgeom=NO
*Static
1.,         1.,     1.,       1.
** ini,  max_time, min_inc, max_inc
** 
** BOUNDARY CONDITIONS
** 
** Name: left_fix Type: Displacement/Rotation
*Boundary
left_face, 1, 1
left_face, 2, 2
** 
** LOADS
** 
** Name: load_force   Type: Surface traction
*Dsload, follower=NO
right_face, TRVEC, 6.25, 0., 1., 0.
** 
** OUTPUT REQUESTS
** 
*Restart, write, frequency=0
** 
** FIELD OUTPUT: F-Output-1
** 
*Output, field, variable=PRESELECT
** 
** HISTORY OUTPUT: H-Output-1
** 
*Output, history, variable=PRESELECT
*End Step
