*Heading
** Job name: beamFreeDeflect_CPS3_load_mesh1 Model name: Model-1
** Generated by: Abaqus/CAE 6.14-1
*Preprint, echo=NO, model=NO, history=NO, contact=NO
**
** PARTS
**
*Part, name=beamDeflec
*End Part
**  
**
** ASSEMBLY
**
*Assembly, name=Assembly
**  
*Instance, name=beamDeflec-1, part=beamDeflec
*Node
      1,           0.,           0.
      2,           1.,           0.
      3,           2.,           0.
      4,           3.,           0.
      5,           4.,           0.
      6,           5.,           0.
      7,           6.,           0.
      8,           7.,           0.
      9,           8.,           0.
     10,           9.,           0.
     11,          10.,           0.
     12,          11.,           0.
     13,          12.,           0.
     14,          13.,           0.
     15,          14.,           0.
     16,          15.,           0.
     17,          16.,           0.
     18,          17.,           0.
     19,          18.,           0.
     20,          19.,           0.
** ... 185 like lines cut
*Element, type=CPS3
  1,   1,   2,  43
  2,  43,  42,   1
  3,   2,   3,  44
  4,  44,  43,   2
  5,   3,   4,  45
  6,  45,  44,   3
  7,   4,   5,  46
  8,  46,  45,   4
  9,   5,   6,  47
 10,  47,  46,   5
 11,   6,   7,  48
 12,  48,  47,   6
 13,   7,   8,  49
 14,  49,  48,   7
 15,   8,   9,  50
 16,  50,  49,   8
 17,   9,  10,  51
 18,  51,  50,   9
 19,  10,  11,  52
 20,  52,  51,  10
** ... 300 like lines cut
*Nset, nset=Set-1, generate
   1,  205,    1
*Elset, elset=Set-1, generate
   1,  320,    1
** Section: Section-1
*Solid Section, elset=Set-1, controls=EC-1, material=Material-1
,
*End Instance
**  
*Nset, nset=left_face, instance=beamDeflec-1, generate
   1,  165,   41
*Elset, elset=left_face, instance=beamDeflec-1, generate
   2,  242,   80
*Nset, nset=right_disp, instance=beamDeflec-1, generate
  41,  205,   41
*Elset, elset=right_disp, instance=beamDeflec-1, generate
  79,  319,   80
*Nset, nset=right_side, instance=beamDeflec-1, generate
  41,  205,   41
*Elset, elset=right_side, instance=beamDeflec-1, generate
  79,  319,   80
*Elset, elset=_right_face_S2, internal, instance=beamDeflec-1, generate
  79,  319,   80
*Surface, type=ELEMENT, name=right_face
_right_face_S2, S2
*End Assembly
** 
** ELEMENT CONTROLS
** 
*Section Controls, name=EC-1, second order accuracy=YES
1., 1., 1.
** 
** MATERIALS
** 
*Material, name=Material-1
*Elastic
200000., 0.3
** ----------------------------------------------------------------
** 
** STEP: Step-1
** 
*Step, name=Step-1, nlgeom=YES
*Static
0.2, 1., 1e-05, 0.2
** 
** BOUNDARY CONDITIONS
** 
** Name: left_fix Type: Displacement/Rotation
*Boundary
left_face, 1, 1
left_face, 2, 2
** 
** LOADS
** 
** Name: right_load   Type: Surface traction
*Dsload
right_face, TRVEC, 800., 0., 1., 0.
** 
** OUTPUT REQUESTS
** 
*Restart, write, frequency=0
** 
** FIELD OUTPUT: F-Output-1
** 
*Output, field, variable=PRESELECT
** 
** HISTORY OUTPUT: H-Output-1
** 
*Output, history, variable=PRESELECT
*End Step
