*Heading
** Job name: beamFreeDeflect_CPS6_load_mesh4 Model name: Model-1
** Generated by: Abaqus/CAE 6.14-1
*Preprint, echo=NO, model=NO, history=NO, contact=NO
**
** PARTS
**
*Part, name=beamDeflec
*End Part
**  
**
** ASSEMBLY
**
*Assembly, name=Assembly
**  
*Instance, name=beamDeflec-1, part=beamDeflec
*Node
      1,           0.,           0.
      2,           4.,           0.
      3,           8.,           0.
      4,          12.,           0.
      5,          16.,           0.
      6,          20.,           0.
      7,          24.,           0.
      8,          28.,           0.
      9,          32.,           0.
     10,          36.,           0.
     11,          40.,           0.
     12,           0.,           2.
     13,           4.,           2.
     14,           8.,           2.
     15,          12.,           2.
     16,          16.,           2.
     17,          20.,           2.
     18,          24.,           2.
     19,          28.,           2.
     20,          32.,           2.
** ... 85 like lines cut
*Element, type=CPS6
 1,   1,   2,  13,  34,  35,  36
 2,  13,  12,   1,  37,  38,  36
 3,   2,   3,  14,  39,  40,  41
 4,  14,  13,   2,  42,  35,  41
 5,   3,   4,  15,  43,  44,  45
 6,  15,  14,   3,  46,  40,  45
 7,   4,   5,  16,  47,  48,  49
 8,  16,  15,   4,  50,  44,  49
 9,   5,   6,  17,  51,  52,  53
10,  17,  16,   5,  54,  48,  53
11,   6,   7,  18,  55,  56,  57
12,  18,  17,   6,  58,  52,  57
13,   7,   8,  19,  59,  60,  61
14,  19,  18,   7,  62,  56,  61
15,   8,   9,  20,  63,  64,  65
16,  20,  19,   8,  66,  60,  65
17,   9,  10,  21,  67,  68,  69
18,  21,  20,   9,  70,  64,  69
19,  10,  11,  22,  71,  72,  73
20,  22,  21,  10,  74,  68,  73
** ... 20 like lines cut
*Nset, nset=Set-1, generate
   1,  105,    1
*Elset, elset=Set-1, generate
  1,  40,   1
** Section: Section-1
*Solid Section, elset=Set-1, material=Material-1
,
*End Instance
**  
*Nset, nset=left_face, instance=beamDeflec-1
  1, 12, 23, 38, 78
*Elset, elset=left_face, instance=beamDeflec-1
  2, 22
*Nset, nset=right_disp, instance=beamDeflec-1
  11,  22,  33,  72, 103
*Elset, elset=right_disp, instance=beamDeflec-1
 19, 39
*Nset, nset=right_side, instance=beamDeflec-1
  11,  22,  33,  72, 103
*Elset, elset=right_side, instance=beamDeflec-1
 19, 39
*Elset, elset=_right_face_S2, internal, instance=beamDeflec-1
 19, 39
*Surface, type=ELEMENT, name=right_face
_right_face_S2, S2
*End Assembly
** 
** MATERIALS
** 
*Material, name=Material-1
*Elastic
200000., 0.3
** ----------------------------------------------------------------
** 
** STEP: Step-1
** 
*Step, name=Step-1, nlgeom=YES
*Static
0.2, 1., 1e-05, 0.2
** 
** BOUNDARY CONDITIONS
** 
** Name: left_fix Type: Displacement/Rotation
*Boundary
left_face, 1, 1
left_face, 2, 2
** 
** LOADS
** 
** Name: right_load   Type: Surface traction
*Dsload
right_face, TRVEC, 800., 0., 1., 0.
** 
** OUTPUT REQUESTS
** 
*Restart, write, frequency=0
** 
** FIELD OUTPUT: F-Output-1
** 
*Output, field, variable=PRESELECT
** 
** HISTORY OUTPUT: H-Output-1
** 
*Output, history, variable=PRESELECT
*End Step
