*Heading
** Job name: beamFreeDeflect_CPS6_mesh13 Model name: Model-1
** Generated by: Abaqus/CAE 6.14-1
*Preprint, echo=NO, model=NO, history=NO, contact=NO
**
** PARTS
**
*Part, name=beamDeflec
*End Part
**  
**
** ASSEMBLY
**
*Assembly, name=Assembly
**  
*Instance, name=beamDeflec-1, part=beamDeflec
*Node
      1,           0.,           0.
      2,    13.333333,           0.
      3,    26.666666,           0.
      4,          40.,           0.
      5,           0.,           2.
      6,    13.333333,           2.
      7,    26.666666,           2.
      8,          40.,           2.
      9,           0.,           4.
     10,    13.333333,           4.
     11,    26.666666,           4.
     12,          40.,           4.
     13,   6.66666651,           0.
     14,    13.333333,           1.
     15,   6.66666651,           1.
     16,   6.66666651,           2.
     17,           0.,           1.
     18,          20.,           0.
     19,    26.666666,           1.
     20,          20.,           1.
** ... 15 like lines cut
*Element, type=CPS6
 1,  1,  2,  6, 13, 14, 15
 2,  6,  5,  1, 16, 17, 15
 3,  2,  3,  7, 18, 19, 20
 4,  7,  6,  2, 21, 14, 20
 5,  3,  4,  8, 22, 23, 24
 6,  8,  7,  3, 25, 19, 24
 7,  5,  6, 10, 16, 26, 27
 8, 10,  9,  5, 28, 29, 27
 9,  6,  7, 11, 21, 30, 31
10, 11, 10,  6, 32, 26, 31
11,  7,  8, 12, 25, 33, 34
12, 12, 11,  7, 35, 30, 34
*Nset, nset=Set-1, generate
  1,  35,   1
*Elset, elset=Set-1, generate
  1,  12,   1
** Section: Section-1
*Solid Section, elset=Set-1, material=Material-1
,
*End Instance
**  
*Nset, nset=left_face, instance=beamDeflec-1
  1,  5,  9, 17, 29
*Elset, elset=left_face, instance=beamDeflec-1
 2, 8
*Nset, nset=right_disp, instance=beamDeflec-1
  4,  8, 12, 23, 33
*Elset, elset=right_disp, instance=beamDeflec-1
  5, 11
*Nset, nset=right_side, instance=beamDeflec-1
  4,  8, 12, 23, 33
*Elset, elset=right_side, instance=beamDeflec-1
  5, 11
*Elset, elset=_right_face_S2, internal, instance=beamDeflec-1
  5, 11
*Surface, type=ELEMENT, name=right_face
_right_face_S2, S2
*End Assembly
** 
** MATERIALS
** 
*Material, name=Material-1
*Elastic
200000., 0.3
** ----------------------------------------------------------------
** 
** STEP: Step-1
** 
*Step, name=Step-1, nlgeom=YES
*Static
0.2, 1., 1e-05, 0.2
** 
** BOUNDARY CONDITIONS
** 
** Name: left_fix Type: Displacement/Rotation
*Boundary
left_face, 1, 1
left_face, 2, 2
** Name: right_disp Type: Displacement/Rotation
*Boundary, user
right_disp, 2, 2, 30.
** 
** OUTPUT REQUESTS
** 
*Restart, write, frequency=0
** 
** FIELD OUTPUT: F-Output-1
** 
*Output, field, variable=PRESELECT
** 
** HISTORY OUTPUT: H-Output-1
** 
*Output, history, variable=PRESELECT
*End Step
