*Heading
** Job name: beamFreeDeflect_CPS3_load_mesh4 Model name: Model-1
** Generated by: Abaqus/CAE 6.14-1
*Preprint, echo=NO, model=NO, history=NO, contact=NO
**
** PARTS
**
*Part, name=beamDeflec
*End Part
**  
**
** ASSEMBLY
**
*Assembly, name=Assembly
**  
*Instance, name=beamDeflec-1, part=beamDeflec
*Node
      1,           0.,           0.
      2,           4.,           0.
      3,           8.,           0.
      4,          12.,           0.
      5,          16.,           0.
      6,          20.,           0.
      7,          24.,           0.
      8,          28.,           0.
      9,          32.,           0.
     10,          36.,           0.
     11,          40.,           0.
     12,           0.,           1.
     13,           4.,           1.
     14,           8.,           1.
     15,          12.,           1.
     16,          16.,           1.
     17,          20.,           1.
     18,          24.,           1.
     19,          28.,           1.
     20,          32.,           1.
** ... 35 like lines cut
*Element, type=CPS3
 1,  1,  2, 13
 2, 13, 12,  1
 3,  2,  3, 14
 4, 14, 13,  2
 5,  3,  4, 15
 6, 15, 14,  3
 7,  4,  5, 16
 8, 16, 15,  4
 9,  5,  6, 17
10, 17, 16,  5
11,  6,  7, 18
12, 18, 17,  6
13,  7,  8, 19
14, 19, 18,  7
15,  8,  9, 20
16, 20, 19,  8
17,  9, 10, 21
18, 21, 20,  9
19, 10, 11, 22
20, 22, 21, 10
** ... 60 like lines cut
*Nset, nset=Set-1, generate
  1,  55,   1
*Elset, elset=Set-1, generate
  1,  80,   1
** Section: Section-1
*Solid Section, elset=Set-1, controls=EC-1, material=Material-1
,
*End Instance
**  
*Nset, nset=left_face, instance=beamDeflec-1, generate
  1,  45,  11
*Elset, elset=left_face, instance=beamDeflec-1, generate
  2,  62,  20
*Nset, nset=right_disp, instance=beamDeflec-1, generate
 11,  55,  11
*Elset, elset=right_disp, instance=beamDeflec-1, generate
 19,  79,  20
*Nset, nset=right_side, instance=beamDeflec-1, generate
 11,  55,  11
*Elset, elset=right_side, instance=beamDeflec-1, generate
 19,  79,  20
*Elset, elset=_right_face_S2, internal, instance=beamDeflec-1, generate
 19,  79,  20
*Surface, type=ELEMENT, name=right_face
_right_face_S2, S2
*End Assembly
** 
** ELEMENT CONTROLS
** 
*Section Controls, name=EC-1, second order accuracy=YES
1., 1., 1.
** 
** MATERIALS
** 
*Material, name=Material-1
*Elastic
200000., 0.3
** ----------------------------------------------------------------
** 
** STEP: Step-1
** 
*Step, name=Step-1, nlgeom=YES
*Static
0.2, 1., 1e-05, 0.2
** 
** BOUNDARY CONDITIONS
** 
** Name: left_fix Type: Displacement/Rotation
*Boundary
left_face, 1, 1
left_face, 2, 2
** 
** LOADS
** 
** Name: right_load   Type: Surface traction
*Dsload
right_face, TRVEC, 800., 0., 1., 0.
** 
** OUTPUT REQUESTS
** 
*Restart, write, frequency=0
** 
** FIELD OUTPUT: F-Output-1
** 
*Output, field, variable=PRESELECT
** 
** HISTORY OUTPUT: H-Output-1
** 
*Output, history, variable=PRESELECT
*End Step
