*Heading
** Job name: beamFreeDeflect_CPS3_load_mesh2 Model name: Model-1
** Generated by: Abaqus/CAE 6.14-1
*Preprint, echo=NO, model=NO, history=NO, contact=NO
**
** PARTS
**
*Part, name=beamDeflec
*End Part
**  
**
** ASSEMBLY
**
*Assembly, name=Assembly
**  
*Instance, name=beamDeflec-1, part=beamDeflec
*Node
      1,           0.,           0.
      2,           2.,           0.
      3,           4.,           0.
      4,           6.,           0.
      5,           8.,           0.
      6,          10.,           0.
      7,          12.,           0.
      8,          14.,           0.
      9,          16.,           0.
     10,          18.,           0.
     11,          20.,           0.
     12,          22.,           0.
     13,          24.,           0.
     14,          26.,           0.
     15,          28.,           0.
     16,          30.,           0.
     17,          32.,           0.
     18,          34.,           0.
     19,          36.,           0.
     20,          38.,           0.
** ... 85 like lines cut
*Element, type=CPS3
  1,   1,   2,  23
  2,  23,  22,   1
  3,   2,   3,  24
  4,  24,  23,   2
  5,   3,   4,  25
  6,  25,  24,   3
  7,   4,   5,  26
  8,  26,  25,   4
  9,   5,   6,  27
 10,  27,  26,   5
 11,   6,   7,  28
 12,  28,  27,   6
 13,   7,   8,  29
 14,  29,  28,   7
 15,   8,   9,  30
 16,  30,  29,   8
 17,   9,  10,  31
 18,  31,  30,   9
 19,  10,  11,  32
 20,  32,  31,  10
** ... 140 like lines cut
*Nset, nset=Set-1, generate
   1,  105,    1
*Elset, elset=Set-1, generate
   1,  160,    1
** Section: Section-1
*Solid Section, elset=Set-1, controls=EC-1, material=Material-1
,
*End Instance
**  
*Nset, nset=left_face, instance=beamDeflec-1, generate
  1,  85,  21
*Elset, elset=left_face, instance=beamDeflec-1, generate
   2,  122,   40
*Nset, nset=right_disp, instance=beamDeflec-1, generate
  21,  105,   21
*Elset, elset=right_disp, instance=beamDeflec-1, generate
  39,  159,   40
*Nset, nset=right_side, instance=beamDeflec-1, generate
  21,  105,   21
*Elset, elset=right_side, instance=beamDeflec-1, generate
  39,  159,   40
*Elset, elset=_right_face_S2, internal, instance=beamDeflec-1, generate
  39,  159,   40
*Surface, type=ELEMENT, name=right_face
_right_face_S2, S2
*End Assembly
** 
** ELEMENT CONTROLS
** 
*Section Controls, name=EC-1, second order accuracy=YES
1., 1., 1.
** 
** MATERIALS
** 
*Material, name=Material-1
*Elastic
200000., 0.3
** ----------------------------------------------------------------
** 
** STEP: Step-1
** 
*Step, name=Step-1, nlgeom=YES
*Static
0.2, 1., 1e-05, 0.2
** 
** BOUNDARY CONDITIONS
** 
** Name: left_fix Type: Displacement/Rotation
*Boundary
left_face, 1, 1
left_face, 2, 2
** 
** LOADS
** 
** Name: right_load   Type: Surface traction
*Dsload
right_face, TRVEC, 800., 0., 1., 0.
** 
** OUTPUT REQUESTS
** 
*Restart, write, frequency=0
** 
** FIELD OUTPUT: F-Output-1
** 
*Output, field, variable=PRESELECT
** 
** HISTORY OUTPUT: H-Output-1
** 
*Output, history, variable=PRESELECT
*End Step
