*Heading
** Job name: ellip_membrane_localFine_dirichlet Model name: Model-1
** Generated by: Abaqus/CAE 6.14-1
*Preprint, echo=NO, model=NO, history=NO, contact=NO
**
** PARTS
**
*Part, name=ellip_membrane
*End Part
**  
**
** ASSEMBLY
**
*Assembly, name=Assembly
**  
*Instance, name=ellip_membrane-1, part=ellip_membrane
*Node
      1,   3.21063328,  0.426728368
      2,   3.09490633,  0.839380682
      3,   2.90930438,   1.22574008
      4,   2.66290116,   1.57654095
      5,   2.36571932,   1.88558924
      6,   2.02753806,   2.14922905
      7,   1.65727472,   2.36559272
      8,   1.26281106,   2.53391767
      9,  0.851076007,    2.6540339
     10,  0.428248107,   2.72602129
     11,         3.25,           0.
     12,           0.,         2.75
     13,           0.,           1.
     14,  0.997145355,  0.866847932
     15,  0.603118181,  0.953447461
     16,  0.402987599,  0.979489803
     17,   1.18894374,  0.804116368
     18,    1.4651401,  0.680691659
     19,   1.71666574,  0.513093233
     20,   1.82571244,  0.408281147
** ... 221 like lines cut
*Element, type=CPS3
  1, 131,  72, 103
  2, 131, 104,  72
  3, 122,  95,  93
  4,  53, 139,  54
  5,  77,  42,  76
  6,  80,  44,  79
  7, 123, 121,  80
  8,  86,  35,  85
  9, 114, 113,  86
 10, 109,  92,  91
 11,  98,  17,  92
 12, 135,  98, 130
 13, 100,  29,  99
 14, 134, 133, 100
 15, 233, 155, 174
 16, 101,  15, 100
 17, 233,  27, 231
 18,  26,  10,  12
 19,  92,  40,  91
 20, 124, 123,  79
** ... 387 like lines cut
*Nset, nset=Set-1, generate
   1,  241,    1
*Elset, elset=Set-1, generate
   1,  407,    1
** Section: Section-1
*Solid Section, elset=Set-1, material=Material-1
,
*End Instance
**  
*Nset, nset=Set-2, instance=ellip_membrane-1
 11, 23, 24, 25, 55, 56, 57, 58, 59, 60, 61, 62, 63, 64, 65, 66
 67, 68, 69, 70, 71, 72, 73
*Elset, elset=Set-2, instance=ellip_membrane-1
  41,  43,  46,  47,  48,  49,  50,  51,  52,  56,  60,  64,  65, 102, 104, 107
 110, 122, 125, 128, 135, 192
*Nset, nset=Set-18, instance=ellip_membrane-1
 11,
*Nset, nset=Set-19, instance=ellip_membrane-1
 12, 13
*Nset, nset=left-edge, instance=ellip_membrane-1
 12, 13, 26, 27, 28
*Elset, elset=left-edge, instance=ellip_membrane-1
  18,  24, 386, 404
*Elset, elset=_Surf-1_S2, internal, instance=ellip_membrane-1
  18,  57, 123, 368, 376, 379, 383, 388, 396, 400, 406
*Surface, type=ELEMENT, name=Surf-1
_Surf-1_S2, S2
*End Assembly
** 
** MATERIALS
** 
*Material, name=Material-1
*Elastic
210000., 0.3
** ----------------------------------------------------------------
** 
** STEP: Step-1
** 
*Step, name=Step-1, nlgeom=NO
*Static
0.25, 1., 1e-05, 0.25
** 
** BOUNDARY CONDITIONS
** 
** Name: bottom-fit Type: Displacement/Rotation
*Boundary
Set-2, 2, 2
** Name: dirichletBC Type: Displacement/Rotation
*Boundary
Set-19, 2, 2, 0.04
** Name: left-fit Type: Displacement/Rotation
*Boundary
left-edge, 1, 1
** 
** OUTPUT REQUESTS
** 
*Restart, write, frequency=0
** 
** FIELD OUTPUT: F-Output-1
** 
*Output, field, variable=PRESELECT
** 
** HISTORY OUTPUT: H-Output-1
** 
*Output, history, variable=PRESELECT
*End Step
