*Heading
** Job name: twist_plate_C3D4 Model name: Model-1
** Generated by: Abaqus/CAE 6.14-1
*Preprint, echo=NO, model=NO, history=NO, contact=NO
**
** PARTS
**
*Part, name=Part-1
*End Part
**  
**
** ASSEMBLY
**
*Assembly, name=Assembly
**  
*Instance, name=Part-1-1, part=Part-1
*Node
      1,          80.,          10.,         120.
      2,          80.,           0.,         120.
      3,          80.,           0.,           0.
      4,          80.,          10.,           0.
      5,           0.,           0.,         120.
      6,           0.,           0.,           0.
      7,           0.,          10.,           0.
      8,           0.,          10.,         120.
      9,          80.,           0.,         110.
     10,          80.,           0.,         100.
     11,          80.,           0.,          90.
     12,          80.,           0.,          80.
     13,          80.,           0.,          70.
     14,          80.,           0.,          60.
     15,          80.,           0.,          50.
     16,          80.,           0.,          40.
     17,          80.,           0.,          30.
     18,          80.,           0.,          20.
     19,          80.,           0.,          10.
     20,          80.,          10.,          10.
** ... 303 like lines cut
*Element, type=C3D4
   1, 235, 236,  92, 167
   2, 235, 237,  92,  93
   3, 238, 190, 239, 183
   4, 238, 240, 104, 103
   5, 238, 241, 190, 191
   6, 238, 242, 184, 103
   7, 238, 241, 191, 110
   8, 238, 191, 242, 110
   9, 243, 244, 177,  96
  10, 243, 245,  96, 177
  11, 243, 244,  89, 170
  12, 243, 246, 171, 170
  13, 243, 247,  95, 178
  14, 243, 245,  95,  96
  15, 248, 249, 128, 201
  16, 250, 248, 129, 136
  17, 207, 135, 248, 136
  18, 251, 252, 217, 140
  19, 251, 253, 147, 224
  20, 251, 139, 140, 147
** ... 1096 like lines cut
*Nset, nset=Set-1, generate
   1,  323,    1
*Elset, elset=Set-1, generate
    1,  1116,     1
** Section: Section-1
*Solid Section, elset=Set-1, material=Material-1
,
*End Instance
**  
*Nset, nset=Set-1, instance=Part-1-1
  1,  2,  5,  8, 31, 32, 33, 34, 35, 36, 37, 63, 64, 65, 66, 67
 68, 69
*Elset, elset=Set-1, instance=Part-1-1
  217,  224,  226,  259,  284,  371,  407,  408,  409,  626,  796,  837,  839,  849, 1010, 1075
*Nset, nset=Set-10, instance=Part-1-1
  1,  2,  5,  8, 31, 32, 33, 34, 35, 36, 37, 63, 64, 65, 66, 67
 68, 69
*Elset, elset=Set-10, instance=Part-1-1
  217,  224,  226,  259,  284,  371,  407,  408,  409,  626,  796,  837,  839,  849, 1010, 1075
*Nset, nset=Set-11, instance=Part-1-1
  1,  2,  3,  4,  9, 10, 11, 12, 13, 14, 15, 16, 17, 18, 19, 20
 21, 22, 23, 24, 25, 26, 27, 28, 29, 30
*Elset, elset=Set-11, instance=Part-1-1
  178,  195,  276,  283,  349,  418,  881,  942,  973,  988,  997, 1036, 1048, 1052, 1059, 1061
 1070, 1071, 1072, 1073, 1080, 1087, 1088, 1102
*Nset, nset=Set-12, instance=Part-1-1
 6, 7
*Elset, elset=Set-12, instance=Part-1-1
 357, 871
*Nset, nset=Set-15, instance=Part-1-1
 6, 7
*Nset, nset=Set-16, instance=Part-1-1
 4,
*Nset, nset=Set-17, instance=Part-1-1
 3,
*Nset, nset=Set-18, instance=Part-1-1
 6,
*Nset, nset=Set-19, instance=Part-1-1
 7,
*Nset, nset=fit_Z_face, instance=Part-1-1
  3,  4,  6,  7, 49, 50, 51, 52, 53, 54, 55, 56, 57, 58, 59, 60
 61, 62
*Elset, elset=fit_Z_face, instance=Part-1-1
   71,  256,  285,  444,  633,  791,  804,  819,  832,  860,  871,  939,  958,  990, 1017, 1025
*Nset, nset=fit_face, instance=Part-1-1
  1,  2,  5,  8, 31, 32, 33, 34, 35, 36, 37, 63, 64, 65, 66, 67
 68, 69
*Elset, elset=fit_face, instance=Part-1-1
  217,  224,  226,  259,  284,  371,  407,  408,  409,  626,  796,  837,  839,  849, 1010, 1075
*Nset, nset=fit_right_z, instance=Part-1-1
  3,  4,  6,  7, 49, 50, 51, 52, 53, 54, 55, 56, 57, 58, 59, 60
 61, 62
*Elset, elset=fit_right_z, instance=Part-1-1
   71,  256,  285,  444,  633,  791,  804,  819,  832,  860,  871,  939,  958,  990, 1017, 1025
*Nset, nset=load_face, instance=Part-1-1
  3,  4,  6,  7, 49, 50, 51, 52, 53, 54, 55, 56, 57, 58, 59, 60
 61, 62
*Elset, elset=load_face, instance=Part-1-1
   71,  256,  285,  444,  633,  791,  804,  819,  832,  860,  871,  939,  958,  990, 1017, 1025
*Nset, nset=point1, instance=Part-1-1
 7,
*Nset, nset=point2, instance=Part-1-1
 6,
*Nset, nset=point3, instance=Part-1-1
 3,
*Nset, nset=point4, instance=Part-1-1
 4,
*Elset, elset=_Surf-1_S3, internal, instance=Part-1-1
   55,   71,  135,  214,  221,  256,  285,  357,  444,  499,  562,  568,  633,  643,  653,  713
  791,  792,  804,  807,  811,  819,  824,  832,  871,  956, 1017, 1025
*Elset, elset=_Surf-1_S2, internal, instance=Part-1-1
  563,  715,  754,  808,  860,  939, 1040
*Elset, elset=_Surf-1_S1, internal, instance=Part-1-1
  603,  904,  958,  990, 1028
*Surface, type=ELEMENT, name=Surf-1
_Surf-1_S3, S3
_Surf-1_S2, S2
_Surf-1_S1, S1
*End Assembly
** 
** MATERIALS
** 
*Material, name=Material-1
*Elastic
 2e+11, 0.3
** ----------------------------------------------------------------
** 
** STEP: Step-1
** 
*Step, name=Step-1, nlgeom=YES
*Static
0.05, 1., 1e-05, 0.05
** 
** BOUNDARY CONDITIONS
** 
** Name: left_fit Type: Displacement/Rotation
*Boundary
Set-10, 1, 1
Set-10, 2, 2
Set-10, 3, 3
** Name: right_face_twist Type: Displacement/Rotation
*Boundary, user
fit_right_z, 1, 1
fit_right_z, 2, 2
fit_right_z, 3, 3
** 
** OUTPUT REQUESTS
** 
*Restart, write, frequency=0
** 
** FIELD OUTPUT: F-Output-1
** 
*Output, field, variable=PRESELECT
** 
** HISTORY OUTPUT: H-Output-1
** 
*Output, history, variable=PRESELECT
*End Step
