*Heading
** Job name: twist_C3D10_coarse Model name: Model-1
** Generated by: Abaqus/CAE 6.14-1
*Preprint, echo=NO, model=NO, history=NO, contact=NO
**
** PARTS
**
*Part, name=Part-1
*End Part
**  
**
** ASSEMBLY
**
*Assembly, name=Assembly
**  
*Instance, name=Part-1-1, part=Part-1
*Node
      1,          80.,          10.,         120.
      2,          80.,           0.,         120.
      3,          80.,           0.,           0.
      4,          80.,          10.,           0.
      5,           0.,           0.,         120.
      6,           0.,           0.,           0.
      7,           0.,          10.,           0.
      8,           0.,          10.,         120.
      9,          80.,           0.,         100.
     10,          80.,           0.,          80.
     11,          80.,           0.,          60.
     12,          80.,           0.,          40.
     13,          80.,           0.,          20.
     14,          80.,          10.,          20.
     15,          80.,          10.,          40.
     16,          80.,          10.,          60.
     17,          80.,          10.,          80.
     18,          80.,          10.,         100.
     19,          60.,           0.,         120.
     20,          40.,           0.,         120.
** ... 384 like lines cut
*Element, type=C3D10
  1,  71,  37,  36,  25,  79,  78,  77,  81,  80,  82
  2,  55,  52,  65,  71,  85,  84,  83,  87,  86,  88
  3,  72,  70,  14,   4,  91,  90,  89,  93,  92,  94
  4,  72,  70,   4,  32,  91,  92,  93,  96,  95,  97
  5,  70,  32,  53,  69,  95,  99,  98, 101, 100, 102
  6,  13,  53,  72,  29, 105, 104, 103, 107, 106, 108
  7,  72,  70,  13,  14,  91, 109, 103,  89,  90, 110
  8,  72,  53,  32,  29, 104,  99,  96, 108, 106, 111
  9,  73,  40,   5,   8, 114, 113, 112, 116, 115, 117
 10,   8,  56,  21,  73, 120, 119, 118, 116, 121, 122
 11,  19,  58,  34,  35, 125, 124, 123, 127, 126, 128
 12,  73,   5,  40,  22, 112, 113, 114, 130, 129, 131
 13,  73,  22,  40,  43, 130, 131, 114, 133, 132, 134
 14,  73,  43,  40,  56, 133, 134, 114, 121, 135, 136
 15,  74,  47,  64,  11, 139, 138, 137, 141, 140, 142
 16,   2,  19,  75,  41, 145, 144, 143, 147, 146, 148
 17,  75,  35,   2,   1, 150, 149, 143, 152, 151, 153
 18,  75,  19,  58,  41, 144, 125, 154, 148, 146, 155
 19,  75,  35,   1,  18, 150, 151, 152, 157, 156, 158
 20,  75,  58,  35,  18, 154, 126, 150, 157, 159, 156
** ... 165 like lines cut
*Nset, nset=Set-1, generate
   1,  404,    1
*Elset, elset=Set-1, generate
   1,  185,    1
** Section: Section-1
*Solid Section, elset=Set-1, material=Material-1
,
*End Instance
**  
*Nset, nset=Set-1, instance=Part-1-1
   1,   2,   5,   8,  19,  20,  21,  33,  34,  35, 117, 118, 123, 127, 128, 145
 149, 151, 153, 286, 363, 364, 366, 369, 376, 382, 383
*Elset, elset=Set-1, instance=Part-1-1
  11,  17, 110, 115, 129, 131, 134, 153
*Nset, nset=Set-10, instance=Part-1-1
   1,   2,   5,   8,  19,  20,  21,  33,  34,  35, 117, 118, 123, 127, 128, 145
 149, 151, 153, 286, 363, 364, 366, 369, 376, 382, 383
*Elset, elset=Set-10, instance=Part-1-1
  11,  17, 110, 115, 129, 131, 134, 153
*Nset, nset=Set-11, instance=Part-1-1
   1,   2,   3,   4,   9,  10,  11,  12,  13,  14,  15,  16,  17,  18,  94, 110
 153, 158, 201, 202, 203, 226, 227, 274, 275, 277, 337, 339, 358, 380, 381, 388
 390, 394, 396, 398, 399, 401, 404
*Elset, elset=Set-11, instance=Part-1-1
  30,  37, 128, 141, 148, 149, 158, 159, 165, 167, 182, 185
*Nset, nset=Set-12, instance=Part-1-1
   6,   7, 353
*Elset, elset=Set-12, instance=Part-1-1
  99, 138
*Nset, nset=Set-15, instance=Part-1-1
 6, 7
*Nset, nset=Set-16, instance=Part-1-1
 4,
*Nset, nset=Set-17, instance=Part-1-1
 3,
*Nset, nset=Set-18, instance=Part-1-1
 6,
*Nset, nset=Set-19, instance=Part-1-1
 7,
*Nset, nset=fit_Z_face, instance=Part-1-1
   3,   4,   6,   7,  27,  28,  29,  30,  31,  32,  97, 111, 165, 170, 254, 255
 260, 315, 316, 317, 353, 368, 380, 385, 386, 402, 403
*Elset, elset=fit_Z_face, instance=Part-1-1
  47,  76,  85, 137, 138, 172, 181, 183
*Nset, nset=fit_face, instance=Part-1-1
   1,   2,   5,   8,  19,  20,  21,  33,  34,  35, 117, 118, 123, 127, 128, 145
 149, 151, 153, 286, 363, 364, 366, 369, 376, 382, 383
*Elset, elset=fit_face, instance=Part-1-1
  11,  17, 110, 115, 129, 131, 134, 153
*Nset, nset=fit_right_z, instance=Part-1-1
   3,   4,   6,   7,  27,  28,  29,  30,  31,  32,  97, 111, 165, 170, 254, 255
 260, 315, 316, 317, 353, 368, 380, 385, 386, 402, 403
*Elset, elset=fit_right_z, instance=Part-1-1
  47,  76,  85, 137, 138, 172, 181, 183
*Nset, nset=load_face, instance=Part-1-1
   3,   4,   6,   7,  27,  28,  29,  30,  31,  32,  97, 111, 165, 170, 254, 255
 260, 315, 316, 317, 353, 368, 380, 385, 386, 402, 403
*Elset, elset=load_face, instance=Part-1-1
  47,  76,  85, 137, 138, 172, 181, 183
*Nset, nset=point1, instance=Part-1-1
 7,
*Nset, nset=point2, instance=Part-1-1
 6,
*Nset, nset=point3, instance=Part-1-1
 3,
*Nset, nset=point4, instance=Part-1-1
 4,
*Elset, elset=_Surf-1_S3, internal, instance=Part-1-1
   1,   9,  12,  47,  85,  88,  99, 107, 137, 138, 172, 181
*Elset, elset=_Surf-1_S4, internal, instance=Part-1-1
  24, 105, 183, 184
*Elset, elset=_Surf-1_S2, internal, instance=Part-1-1
  96, 150
*Elset, elset=_Surf-1_S1, internal, instance=Part-1-1
  76, 119
*Surface, type=ELEMENT, name=Surf-1
_Surf-1_S3, S3
_Surf-1_S4, S4
_Surf-1_S2, S2
_Surf-1_S1, S1
*End Assembly
** 
** MATERIALS
** 
*Material, name=Material-1
*Elastic
 2e+11, 0.3
** ----------------------------------------------------------------
** 
** STEP: Step-1
** 
*Step, name=Step-1, nlgeom=YES
*Static
0.025, 1., 1e-05, 0.025
** 
** BOUNDARY CONDITIONS
** 
** Name: left_fit Type: Displacement/Rotation
*Boundary
Set-10, 1, 1
Set-10, 2, 2
Set-10, 3, 3
** Name: right_face_twist Type: Displacement/Rotation
*Boundary, user
fit_right_z, 1, 1
fit_right_z, 2, 2
fit_right_z, 3, 3
** 
** OUTPUT REQUESTS
** 
*Restart, write, frequency=0
** 
** FIELD OUTPUT: F-Output-1
** 
*Output, field, variable=PRESELECT
** 
** HISTORY OUTPUT: H-Output-1
** 
*Output, history, variable=PRESELECT
*End Step
