*Heading
** Job name: ellip_membrane_3d Model name: Model-1
** Generated by: Abaqus/CAE 6.14-1
*Preprint, echo=NO, model=NO, history=NO, contact=NO
**
** PARTS
**
*Part, name=elliptic_membrane_3d
*End Part
**  
**
** ASSEMBLY
**
*Assembly, name=Assembly
**  
*Instance, name=elliptic_membrane_3d-1, part=elliptic_membrane_3d
*Node
      1,         3.25,           0.,  0.100000001
      2,   2.58273458,           0.,  0.100000001
      3,           2.,           0.,  0.100000001
      4,           2.,           0.,           0.
      5,         3.25,           0.,           0.
      6,   1.67983532,  0.542713821,  0.100000001
      7,           0.,           1.,  0.100000001
      8,           0.,           1.,           0.
      9,           0.,         2.75,           0.
     10,           0.,         2.75,  0.100000001
     11,   2.38848972,           0.,  0.100000001
     12,   2.19424486,           0.,  0.100000001
     13,       2.3125,           0.,           0.
     14,        2.625,           0.,           0.
     15,       2.9375,           0.,           0.
     16,   1.97408974,  0.160444409,  0.100000001
     17,   1.90339816,  0.307032377,  0.100000001
     18,    1.8015846,  0.434250236,  0.100000001
     19,   1.37736237,  0.725064278,  0.100000001
     20,   1.04734898,  0.851918459,  0.100000001
** ... 532 like lines cut
*Element, type=C3D10
  1,  97,  27,   6,  19, 109, 108, 107, 111, 110, 112
  2,  97,  96,  69,  94, 115, 114, 113, 117, 116, 118
  3,  97,  55,  54,  28, 121, 120, 119, 123, 122, 124
  4,  69,  99,  98,  96, 127, 126, 125, 114, 128, 129
  5,  98,  96,  95,  76, 129, 131, 130, 133, 132, 134
  6,  98,  69,  76,  70, 125, 135, 133, 137, 136, 138
  7, 101,  82,  68,  70, 141, 140, 139, 143, 142, 144
  8,  99,  97,  96,  69, 145, 115, 128, 127, 113, 114
  9, 100,  70,  53,  54, 148, 147, 146, 150, 149, 151
 10,  96,  95,  75,  93, 131, 153, 152, 155, 154, 156
 11,  95,  47,  76,  80, 158, 157, 134, 160, 159, 161
 12,  96,  69,  94,  67, 114, 118, 116, 163, 162, 164
 13,  91,  66,  67,  56, 167, 166, 165, 169, 168, 170
 14,  94,  55,  56,  67, 173, 172, 171, 164, 174, 170
 15,  67,  91,  94,  93, 165, 175, 164, 177, 176, 178
 16,  94,  91,  56,  20, 175, 169, 171, 180, 179, 181
 17,  93,  74,  92,  75, 184, 183, 182, 156, 185, 186
 18,  93,  66,  90,  74, 189, 188, 187, 184, 190, 191
 19,  94,  55,  67,  69, 173, 174, 164, 118, 192, 162
 20,  96,  75,  95,  76, 152, 153, 131, 132, 193, 134
** ... 217 like lines cut
*Nset, nset=Set-1, generate
   1,  552,    1
*Elset, elset=Set-1, generate
   1,  237,    1
** Section: Section-1
*Solid Section, elset=Set-1, material=Material-1
,
*End Instance
**  
*Nset, nset=Set-2, instance=elliptic_membrane_3d-1
   7,   8,   9,  10,  31,  32,  33,  50,  51,  52, 285, 287, 289, 308, 309, 310
 314, 382, 384, 391, 409, 410, 411, 412, 430, 507, 508
*Elset, elset=Set-2, instance=elliptic_membrane_3d-1
  49,  58,  60,  90, 109, 110, 125, 169
*Nset, nset=back_face, instance=elliptic_membrane_3d-1
   4,   5,   8,   9,  13,  14,  15,  23,  24,  25,  26,  27,  28,  29,  30,  31
  32,  33,  34,  35,  36,  37,  38,  39,  40,  41,  53,  54,  55,  56,  57,  58
  59,  60,  61,  62,  63,  64,  65,  66,  67,  68,  69,  70,  71,  72,  73,  74
  75,  76,  77,  78,  79,  80,  81,  82, 120, 122, 124, 135, 136, 138, 140, 142
 144, 147, 149, 151, 161, 162, 166, 168, 170, 172, 174, 185, 190, 192, 193, 206
 207, 211, 214, 215, 216, 222, 231, 233, 235, 236, 237, 239, 240, 241, 245, 247
 249, 251, 253, 255, 272, 290, 294, 296, 297, 298, 304, 305, 306, 312, 313, 314
 315, 320, 334, 336, 338, 340, 343, 345, 351, 358, 366, 368, 370, 371, 372, 373
 374, 375, 377, 379, 380, 382, 383, 385, 386, 388, 392, 399, 400, 401, 402, 403
 404, 405, 406, 408, 410, 414, 415, 417, 419, 420, 424, 426, 433, 434, 435, 437
 444, 448, 449, 457, 459, 460, 461, 464, 465, 474, 479, 480, 489, 492, 493, 498
 499, 505, 506, 507, 510, 513, 514, 518, 520, 523, 525, 526, 531, 534, 535, 541
 542, 549, 551
*Elset, elset=back_face, instance=elliptic_membrane_3d-1
   3,   6,   7,   9,  13,  14,  19,  25,  29,  34,  35,  36,  37,  50,  52,  53
  57,  60,  63,  68,  69,  76,  78,  79,  81,  82,  86,  87,  88,  90,  91,  94
  98,  99, 100, 102, 103, 106, 109, 111, 112, 113, 114, 115, 117, 118, 120, 122
 124, 127, 128, 131, 134, 139, 144, 145, 146, 153, 159, 163, 168, 169, 171, 175
 176, 180, 181, 183, 186, 190, 193, 196, 201, 205, 206, 208, 211, 215, 216, 224
 227, 229, 235, 236
*Nset, nset=down_face, instance=elliptic_membrane_3d-1
   1,   2,   3,   4,   5,  11,  12,  13,  14,  15, 336, 477, 480, 487, 495, 500
 530, 536, 538, 540, 541, 542, 543, 544, 547, 548, 550
*Elset, elset=down_face, instance=elliptic_membrane_3d-1
 157, 214, 215, 216, 218, 221, 223, 226
*Elset, elset=_load_face_S4, internal, instance=elliptic_membrane_3d-1
  37,  73,  84,  89,  92,  96, 168
*Elset, elset=_load_face_S1, internal, instance=elliptic_membrane_3d-1
  70,  98, 113, 153, 224
*Elset, elset=_load_face_S3, internal, instance=elliptic_membrane_3d-1
 110, 221, 237
*Elset, elset=_load_face_S2, internal, instance=elliptic_membrane_3d-1
 118, 120, 151
*Surface, type=ELEMENT, name=load_face
_load_face_S4, S4
_load_face_S1, S1
_load_face_S2, S2
_load_face_S3, S3
*End Assembly
** 
** MATERIALS
** 
*Material, name=Material-1
*Elastic
 2.1e5, 0.3
** ----------------------------------------------------------------
** 
** STEP: Step-1
** 
*Step, name=Step-1, nlgeom=NO
*Static
1., 1., 1e-05, 1.
** 
** BOUNDARY CONDITIONS
** 
** Name: fix_back_z Type: Displacement/Rotation
*Boundary
back_face, 3, 3
** Name: fix_x Type: Displacement/Rotation
*Boundary
Set-2, 1, 1
** Name: fix_y Type: Displacement/Rotation
*Boundary
down_face, 2, 2
** 
** LOADS
** 
** Name: load_pressure   Type: Pressure
*Dsload
load_face, P, -10.
** 
** OUTPUT REQUESTS
** 
*Restart, write, frequency=0
** 
** FIELD OUTPUT: F-Output-1
** 
*Output, field, variable=PRESELECT
** 
** HISTORY OUTPUT: H-Output-1
** 
*Output, history, variable=PRESELECT
*End Step
