 Abaqus/Standard 6.14-1                  DATE 08-9ÔÂ-2022 TIME 01:31:41
 SUMMARY OF JOB INFORMATION:
 STEP  INC ATT SEVERE EQUIL TOTAL  TOTAL      STEP       INC OF       DOF    IF
               DISCON ITERS ITERS  TIME/    TIME/LPF    TIME/LPF    MONITOR RIKS
               ITERS               FREQ
   1     1   1     0     5     5  0.250      0.250      0.2500    
   1     2   1     0     3     3  0.500      0.500      0.2500    
   1     3   1     0     3     3  0.750      0.750      0.2500    
   1     4   1     0     3     3  1.00       1.00       0.2500    
                          
 THE ANALYSIS HAS COMPLETED SUCCESSFULLY
