1

   Abaqus 6.14-1                                  Date 08-9ÔÂ-2022   Time 02:26:13
   For use by Supplied By SSQ under license from Dassault Systemes or its subsidiary.

                                                                                 
                                                                                 
 STEP    1     INCREMENT     1     STEP TIME    0.00    


                        S T E P       1     S T A T I C   A N A L Y S I S


                                                                                          

     AUTOMATIC TIME CONTROL WITH -
          A SUGGESTED INITIAL TIME INCREMENT OF                0.250    
          AND A TOTAL TIME PERIOD OF                            1.00    
          THE MINIMUM TIME INCREMENT ALLOWED IS                1.000E-05
          THE MAXIMUM TIME INCREMENT ALLOWED IS                0.250    

     LINEAR EQUATION SOLVER TYPE         DIRECT SPARSE

 CONVERGENCE TOLERANCE PARAMETERS FOR FORCE    
     CRITERION FOR RESIDUAL FORCE     FOR A NONLINEAR PROBLEM          5.000E-03
     CRITERION FOR DISP.    CORRECTION IN A NONLINEAR PROBLEM          1.000E-02
     INITIAL VALUE OF TIME AVERAGE FORCE                               1.000E-02
     AVERAGE FORCE     IS TIME AVERAGE FORCE    
     ALTERNATE CRIT. FOR RESIDUAL FORCE     FOR A NONLINEAR PROBLEM    2.000E-02
     CRITERION FOR ZERO FORCE     RELATIVE TO TIME AVRG. FORCE         1.000E-05
     CRITERION FOR RESIDUAL FORCE     WHEN THERE IS ZERO FLUX          1.000E-05
     CRITERION FOR DISP.    CORRECTION WHEN THERE IS ZERO FLUX         1.000E-03
     CRITERION FOR RESIDUAL FORCE     FOR A LINEAR INCREMENT           1.000E-08
     FIELD CONVERSION RATIO                                             1.00    
     CRITERION FOR ZERO FORCE     REL. TO TIME AVRG. MAX. FORCE        1.000E-05
     CRITERION FOR ZERO DISP.    RELATIVE TO CHARACTERISTIC LENGTH     1.000E-08

     VOLUMETRIC STRAIN COMPATIBILITY TOLERANCE FOR HYBRID SOLIDS       1.000E-05
     AXIAL STRAIN COMPATIBILITY TOLERANCE FOR HYBRID BEAMS             1.000E-05
     TRANS. SHEAR STRAIN COMPATIBILITY TOLERANCE FOR HYBRID BEAMS      1.000E-05
     SOFT CONTACT CONSTRAINT COMPATIBILITY TOLERANCE FOR P>P0          5.000E-03
     SOFT CONTACT CONSTRAINT COMPATIBILITY TOLERANCE FOR P=0.0         0.100    
     CONTACT FORCE ERROR TOLERANCE FOR CONVERT SDI=YES                 1.00    
     DISPLACEMENT COMPATIBILITY TOLERANCE FOR DCOUP ELEMENTS           1.000E-05
     ROTATION COMPATIBILITY TOLERANCE FOR DCOUP ELEMENTS               1.000E-05

 EQUILIBRIUM WILL BE CHECKED FOR SEVERE DISCONTINUITY ITERATIONS

 TIME INCREMENTATION CONTROL PARAMETERS:
     FIRST EQUILIBRIUM ITERATION FOR CONSECUTIVE DIVERGENCE CHECK              4
     EQUILIBRIUM ITERATION AT WHICH LOG. CONVERGENCE RATE CHECK BEGINS         8
     EQUILIBRIUM ITERATION AFTER WHICH ALTERNATE RESIDUAL IS USED              9
     MAXIMUM EQUILIBRIUM ITERATIONS ALLOWED                                   16
     EQUILIBRIUM ITERATION COUNT FOR CUT-BACK IN NEXT INCREMENT               10
     MAXIMUM EQUILIB. ITERS IN TWO INCREMENTS FOR TIME INCREMENT INCREASE      4
     MAXIMUM ITERATIONS FOR SEVERE DISCONTINUITIES                            50
     MAXIMUM CUT-BACKS ALLOWED IN AN INCREMENT                                 5
     MAXIMUM DISCON. ITERS IN TWO INCREMENTS FOR TIME INCREMENT INCREASE      50
     MAXIMUM CONTACT AUGMENTATIONS FOR *SURFACE BEHAVIOR,AUGMENTED LAGRANGE   50
     CUT-BACK FACTOR AFTER DIVERGENCE                                 0.2500    
     CUT-BACK FACTOR FOR TOO SLOW CONVERGENCE                         0.5000    
     CUT-BACK FACTOR AFTER TOO MANY EQUILIBRIUM ITERATIONS            0.7500    
     CUT-BACK FACTOR AFTER TOO MANY SEVERE DISCONTINUITY ITERATIONS   0.2500    
     CUT-BACK FACTOR AFTER PROBLEMS IN ELEMENT ASSEMBLY               0.2500    
     INCREASE FACTOR AFTER TWO INCREMENTS THAT CONVERGE QUICKLY        1.500    
     MAX. TIME INCREMENT INCREASE FACTOR ALLOWED                       1.500    
     MAX. TIME INCREMENT INCREASE FACTOR ALLOWED (DYNAMICS)            1.250    
     MAX. TIME INCREMENT INCREASE FACTOR ALLOWED (DIFFUSION)           2.000    
     MINIMUM TIME INCREMENT RATIO FOR EXTRAPOLATION TO OCCUR          0.1000    
     MAX. RATIO OF TIME INCREMENT TO STABILITY LIMIT                   1.000    
     FRACTION OF STABILITY LIMIT FOR NEW TIME INCREMENT               0.9500    
     TIME INCREMENT INCREASE FACTOR BEFORE A TIME POINT                1.000    
     GLOBAL STABILIZATION CONTROL IS NOT USED

          PRINT OF INCREMENT NUMBER, TIME, ETC., EVERY    1  INCREMENTS

     THE MAXIMUM NUMBER OF INCREMENTS IN THIS STEP IS                     100

          LARGE DISPLACEMENT THEORY WILL BE USED

     LINEAR EXTRAPOLATION WILL BE USED

     DETAILS REGARDING ACTUAL SOLUTION WAVEFRONT REQUESTED

     DETAILED OUTPUT OF DIAGNOSTICS TO DATABASE REQUESTED

     PRINT OF INCREMENT NUMBER, TIME, ETC., TO THE MESSAGE FILE EVERY     1  INCREMENTS

     COLLECTING MODEL CONSTRAINT INFORMATION FOR OVERCONSTRAINT CHECKS

     COLLECTING STEP CONSTRAINT INFORMATION FOR OVERCONSTRAINT CHECKS


  INCREMENT     1 STARTS. ATTEMPT NUMBER  1, TIME INCREMENT  0.250    

  NUMBER OF EQUATIONS =     1458     NUMBER OF FLOATING PT. OPERATIONS =  1.33E+06

     CHECK POINT   START OF SOLVER    

     CHECK POINT  END OF SOLVER       

       ELAPSED USER TIME (SEC)      =   0.0000    
       ELAPSED SYSTEM TIME (SEC)    =   0.0000    
       ELAPSED TOTAL CPU TIME (SEC) =   0.0000    
       ELAPSED WALLCLOCK TIME (SEC) =          0

               CONVERGENCE CHECKS FOR EQUILIBRIUM ITERATION     1


 AVERAGE FORCE                       462.       TIME AVG. FORCE        462.    
 LARGEST RESIDUAL FORCE            -1.580E+03   AT NODE        672   DOF  2
   INSTANCE: BEAM_DEFLECTION-1                                                               
 LARGEST INCREMENT OF DISP.          4.09       AT NODE        123   DOF  2
   INSTANCE: BEAM_DEFLECTION-1                                                               
 LARGEST CORRECTION TO DISP.         4.09       AT NODE        123   DOF  2
   INSTANCE: BEAM_DEFLECTION-1                                                               
          FORCE     EQUILIBRIUM NOT ACHIEVED WITHIN TOLERANCE.

  NUMBER OF EQUATIONS =     1458     NUMBER OF FLOATING PT. OPERATIONS =  1.33E+06

     CHECK POINT   START OF SOLVER    

     CHECK POINT  END OF SOLVER       

       ELAPSED USER TIME (SEC)      =   0.0000    
       ELAPSED SYSTEM TIME (SEC)    =   0.0000    
       ELAPSED TOTAL CPU TIME (SEC) =   0.0000    
       ELAPSED WALLCLOCK TIME (SEC) =          0

               CONVERGENCE CHECKS FOR EQUILIBRIUM ITERATION     2


 AVERAGE FORCE                       184.       TIME AVG. FORCE        184.    
 LARGEST RESIDUAL FORCE              60.9       AT NODE        657   DOF  1
   INSTANCE: BEAM_DEFLECTION-1                                                               
 LARGEST INCREMENT OF DISP.          3.51       AT NODE         82   DOF  2
   INSTANCE: BEAM_DEFLECTION-1                                                               
 LARGEST CORRECTION TO DISP.       -0.581       AT NODE        205   DOF  2
   INSTANCE: BEAM_DEFLECTION-1                                                               
          FORCE     EQUILIBRIUM NOT ACHIEVED WITHIN TOLERANCE.

  NUMBER OF EQUATIONS =     1458     NUMBER OF FLOATING PT. OPERATIONS =  1.33E+06

     CHECK POINT   START OF SOLVER    

     CHECK POINT  END OF SOLVER       

       ELAPSED USER TIME (SEC)      =   0.0000    
       ELAPSED SYSTEM TIME (SEC)    =   0.0000    
       ELAPSED TOTAL CPU TIME (SEC) =   0.0000    
       ELAPSED WALLCLOCK TIME (SEC) =          0

               CONVERGENCE CHECKS FOR EQUILIBRIUM ITERATION     3


 AVERAGE FORCE                       158.       TIME AVG. FORCE        158.    
 LARGEST RESIDUAL FORCE             -28.8       AT NODE        186   DOF  2
   INSTANCE: BEAM_DEFLECTION-1                                                               
 LARGEST INCREMENT OF DISP.          3.03       AT NODE         82   DOF  2
   INSTANCE: BEAM_DEFLECTION-1                                                               
 LARGEST CORRECTION TO DISP.       -0.478       AT NODE         41   DOF  2
   INSTANCE: BEAM_DEFLECTION-1                                                               
          FORCE     EQUILIBRIUM NOT ACHIEVED WITHIN TOLERANCE.

  NUMBER OF EQUATIONS =     1458     NUMBER OF FLOATING PT. OPERATIONS =  1.33E+06

     CHECK POINT   START OF SOLVER    

     CHECK POINT  END OF SOLVER       

       ELAPSED USER TIME (SEC)      =   0.0000    
       ELAPSED SYSTEM TIME (SEC)    =   0.0000    
       ELAPSED TOTAL CPU TIME (SEC) =   0.0000    
       ELAPSED WALLCLOCK TIME (SEC) =          0

               CONVERGENCE CHECKS FOR EQUILIBRIUM ITERATION     4


 AVERAGE FORCE                       152.       TIME AVG. FORCE        152.    
 LARGEST RESIDUAL FORCE              2.80       AT NODE        205   DOF  2
   INSTANCE: BEAM_DEFLECTION-1                                                               
 LARGEST INCREMENT OF DISP.          2.98       AT NODE        123   DOF  2
   INSTANCE: BEAM_DEFLECTION-1                                                               
 LARGEST CORRECTION TO DISP.       -5.391E-02   AT NODE         41   DOF  2
   INSTANCE: BEAM_DEFLECTION-1                                                               
          FORCE     EQUILIBRIUM NOT ACHIEVED WITHIN TOLERANCE.

  NUMBER OF EQUATIONS =     1458     NUMBER OF FLOATING PT. OPERATIONS =  1.33E+06

     CHECK POINT   START OF SOLVER    

     CHECK POINT  END OF SOLVER       

       ELAPSED USER TIME (SEC)      =   0.0000    
       ELAPSED SYSTEM TIME (SEC)    =   0.0000    
       ELAPSED TOTAL CPU TIME (SEC) =   0.0000    
       ELAPSED WALLCLOCK TIME (SEC) =          0

               CONVERGENCE CHECKS FOR EQUILIBRIUM ITERATION     5


 AVERAGE FORCE                       152.       TIME AVG. FORCE        152.    
 LARGEST RESIDUAL FORCE             0.266       AT NODE        687   DOF  1
   INSTANCE: BEAM_DEFLECTION-1                                                               
 LARGEST INCREMENT OF DISP.          2.98       AT NODE        123   DOF  2
   INSTANCE: BEAM_DEFLECTION-1                                                               
 LARGEST CORRECTION TO DISP.        1.615E-03   AT NODE        205   DOF  2
   INSTANCE: BEAM_DEFLECTION-1                                                               
          THE FORCE     EQUILIBRIUM EQUATIONS HAVE CONVERGED

 ITERATION SUMMARY FOR THE INCREMENT:   5 TOTAL ITERATIONS, OF WHICH
   0 ARE SEVERE DISCONTINUITY ITERATIONS AND  5 ARE EQUILIBRIUM ITERATIONS.

 TIME INCREMENT COMPLETED  0.250    ,  FRACTION OF STEP COMPLETED  0.250    
 STEP TIME COMPLETED       0.250    ,  TOTAL TIME COMPLETED        0.250    


  INCREMENT     2 STARTS. ATTEMPT NUMBER  1, TIME INCREMENT  0.250    

  NUMBER OF EQUATIONS =     1458     NUMBER OF FLOATING PT. OPERATIONS =  1.33E+06

     CHECK POINT   START OF SOLVER    

     CHECK POINT  END OF SOLVER       

       ELAPSED USER TIME (SEC)      =   0.0000    
       ELAPSED SYSTEM TIME (SEC)    =   0.0000    
       ELAPSED TOTAL CPU TIME (SEC) =   0.0000    
       ELAPSED WALLCLOCK TIME (SEC) =          0

               CONVERGENCE CHECKS FOR EQUILIBRIUM ITERATION     1


 AVERAGE FORCE                       277.       TIME AVG. FORCE        215.    
 LARGEST RESIDUAL FORCE             -215.       AT NODE        185   DOF  2
   INSTANCE: BEAM_DEFLECTION-1                                                               
 LARGEST INCREMENT OF DISP.          1.49       AT NODE         41   DOF  2
   INSTANCE: BEAM_DEFLECTION-1                                                               
 LARGEST CORRECTION TO DISP.        -1.50       AT NODE        205   DOF  2
   INSTANCE: BEAM_DEFLECTION-1                                                               
          FORCE     EQUILIBRIUM NOT ACHIEVED WITHIN TOLERANCE.

  NUMBER OF EQUATIONS =     1458     NUMBER OF FLOATING PT. OPERATIONS =  1.33E+06

     CHECK POINT   START OF SOLVER    

     CHECK POINT  END OF SOLVER       

       ELAPSED USER TIME (SEC)      =   0.0000    
       ELAPSED SYSTEM TIME (SEC)    =   0.0000    
       ELAPSED TOTAL CPU TIME (SEC) =   0.0000    
       ELAPSED WALLCLOCK TIME (SEC) =          0

               CONVERGENCE CHECKS FOR EQUILIBRIUM ITERATION     2


 AVERAGE FORCE                       268.       TIME AVG. FORCE        210.    
 LARGEST RESIDUAL FORCE              4.10       AT NODE         41   DOF  2
   INSTANCE: BEAM_DEFLECTION-1                                                               
 LARGEST INCREMENT OF DISP.          1.52       AT NODE         82   DOF  2
   INSTANCE: BEAM_DEFLECTION-1                                                               
 LARGEST CORRECTION TO DISP.        3.589E-02   AT NODE        205   DOF  2
   INSTANCE: BEAM_DEFLECTION-1                                                               
          FORCE     EQUILIBRIUM NOT ACHIEVED WITHIN TOLERANCE.

  NUMBER OF EQUATIONS =     1458     NUMBER OF FLOATING PT. OPERATIONS =  1.33E+06

     CHECK POINT   START OF SOLVER    

     CHECK POINT  END OF SOLVER       

       ELAPSED USER TIME (SEC)      =   0.0000    
       ELAPSED SYSTEM TIME (SEC)    =   0.0000    
       ELAPSED TOTAL CPU TIME (SEC) =   0.0000    
       ELAPSED WALLCLOCK TIME (SEC) =          0

               CONVERGENCE CHECKS FOR EQUILIBRIUM ITERATION     3


 AVERAGE FORCE                       312.       TIME AVG. FORCE        232.    
 LARGEST RESIDUAL FORCE            -0.700       AT NODE        205   DOF  2
   INSTANCE: BEAM_DEFLECTION-1                                                               
 LARGEST INCREMENT OF DISP.          1.53       AT NODE         82   DOF  2
   INSTANCE: BEAM_DEFLECTION-1                                                               
 LARGEST CORRECTION TO DISP.        6.981E-03   AT NODE         41   DOF  2
   INSTANCE: BEAM_DEFLECTION-1                                                               
          THE FORCE     EQUILIBRIUM EQUATIONS HAVE CONVERGED

 ITERATION SUMMARY FOR THE INCREMENT:   3 TOTAL ITERATIONS, OF WHICH
   0 ARE SEVERE DISCONTINUITY ITERATIONS AND  3 ARE EQUILIBRIUM ITERATIONS.

 TIME INCREMENT COMPLETED  0.250    ,  FRACTION OF STEP COMPLETED  0.500    
 STEP TIME COMPLETED       0.500    ,  TOTAL TIME COMPLETED        0.500    


  INCREMENT     3 STARTS. ATTEMPT NUMBER  1, TIME INCREMENT  0.250    

  NUMBER OF EQUATIONS =     1458     NUMBER OF FLOATING PT. OPERATIONS =  1.33E+06

     CHECK POINT   START OF SOLVER    

     CHECK POINT  END OF SOLVER       

       ELAPSED USER TIME (SEC)      =   0.0000    
       ELAPSED SYSTEM TIME (SEC)    =   0.0000    
       ELAPSED TOTAL CPU TIME (SEC) =   0.0000    
       ELAPSED WALLCLOCK TIME (SEC) =          0

               CONVERGENCE CHECKS FOR EQUILIBRIUM ITERATION     1


 AVERAGE FORCE                       376.       TIME AVG. FORCE        280.    
 LARGEST RESIDUAL FORCE              75.3       AT NODE        205   DOF  2
   INSTANCE: BEAM_DEFLECTION-1                                                               
 LARGEST INCREMENT OF DISP.          1.03       AT NODE         41   DOF  2
   INSTANCE: BEAM_DEFLECTION-1                                                               
 LARGEST CORRECTION TO DISP.       -0.501       AT NODE        205   DOF  2
   INSTANCE: BEAM_DEFLECTION-1                                                               
          FORCE     EQUILIBRIUM NOT ACHIEVED WITHIN TOLERANCE.

  NUMBER OF EQUATIONS =     1458     NUMBER OF FLOATING PT. OPERATIONS =  1.33E+06

     CHECK POINT   START OF SOLVER    

     CHECK POINT  END OF SOLVER       

       ELAPSED USER TIME (SEC)      =   0.0000    
       ELAPSED SYSTEM TIME (SEC)    =   0.0000    
       ELAPSED TOTAL CPU TIME (SEC) =   0.0000    
       ELAPSED WALLCLOCK TIME (SEC) =          0

               CONVERGENCE CHECKS FOR EQUILIBRIUM ITERATION     2


 AVERAGE FORCE                       400.       TIME AVG. FORCE        288.    
 LARGEST RESIDUAL FORCE              4.38       AT NODE         41   DOF  2
   INSTANCE: BEAM_DEFLECTION-1                                                               
 LARGEST INCREMENT OF DISP.          1.05       AT NODE         82   DOF  2
   INSTANCE: BEAM_DEFLECTION-1                                                               
 LARGEST CORRECTION TO DISP.        2.887E-02   AT NODE        205   DOF  2
   INSTANCE: BEAM_DEFLECTION-1                                                               
          FORCE     EQUILIBRIUM NOT ACHIEVED WITHIN TOLERANCE.

  NUMBER OF EQUATIONS =     1458     NUMBER OF FLOATING PT. OPERATIONS =  1.33E+06

     CHECK POINT   START OF SOLVER    

     CHECK POINT  END OF SOLVER       

       ELAPSED USER TIME (SEC)      =   0.0000    
       ELAPSED SYSTEM TIME (SEC)    =   0.0000    
       ELAPSED TOTAL CPU TIME (SEC) =   0.0000    
       ELAPSED WALLCLOCK TIME (SEC) =          0

               CONVERGENCE CHECKS FOR EQUILIBRIUM ITERATION     3


 AVERAGE FORCE                       435.       TIME AVG. FORCE        300.    
 LARGEST RESIDUAL FORCE            -0.299       AT NODE        205   DOF  2
   INSTANCE: BEAM_DEFLECTION-1                                                               
 LARGEST INCREMENT OF DISP.          1.06       AT NODE         82   DOF  2
   INSTANCE: BEAM_DEFLECTION-1                                                               
 LARGEST CORRECTION TO DISP.        1.981E-03   AT NODE         41   DOF  2
   INSTANCE: BEAM_DEFLECTION-1                                                               
          THE FORCE     EQUILIBRIUM EQUATIONS HAVE CONVERGED

 ITERATION SUMMARY FOR THE INCREMENT:   3 TOTAL ITERATIONS, OF WHICH
   0 ARE SEVERE DISCONTINUITY ITERATIONS AND  3 ARE EQUILIBRIUM ITERATIONS.

 TIME INCREMENT COMPLETED  0.250    ,  FRACTION OF STEP COMPLETED  0.750    
 STEP TIME COMPLETED       0.750    ,  TOTAL TIME COMPLETED        0.750    


  INCREMENT     4 STARTS. ATTEMPT NUMBER  1, TIME INCREMENT  0.250    

  NUMBER OF EQUATIONS =     1458     NUMBER OF FLOATING PT. OPERATIONS =  1.33E+06

     CHECK POINT   START OF SOLVER    

     CHECK POINT  END OF SOLVER       

       ELAPSED USER TIME (SEC)      =   0.0000    
       ELAPSED SYSTEM TIME (SEC)    =   0.0000    
       ELAPSED TOTAL CPU TIME (SEC) =   0.0000    
       ELAPSED WALLCLOCK TIME (SEC) =          0

               CONVERGENCE CHECKS FOR EQUILIBRIUM ITERATION     1


 AVERAGE FORCE                       488.       TIME AVG. FORCE        347.    
 LARGEST RESIDUAL FORCE              46.6       AT NODE        205   DOF  2
   INSTANCE: BEAM_DEFLECTION-1                                                               
 LARGEST INCREMENT OF DISP.         0.823       AT NODE         41   DOF  2
   INSTANCE: BEAM_DEFLECTION-1                                                               
 LARGEST CORRECTION TO DISP.       -0.233       AT NODE        205   DOF  2
   INSTANCE: BEAM_DEFLECTION-1                                                               
          FORCE     EQUILIBRIUM NOT ACHIEVED WITHIN TOLERANCE.

  NUMBER OF EQUATIONS =     1458     NUMBER OF FLOATING PT. OPERATIONS =  1.33E+06

     CHECK POINT   START OF SOLVER    

     CHECK POINT  END OF SOLVER       

       ELAPSED USER TIME (SEC)      =   0.0000    
       ELAPSED SYSTEM TIME (SEC)    =   0.0000    
       ELAPSED TOTAL CPU TIME (SEC) =   0.0000    
       ELAPSED WALLCLOCK TIME (SEC) =          0

               CONVERGENCE CHECKS FOR EQUILIBRIUM ITERATION     2


 AVERAGE FORCE                       533.       TIME AVG. FORCE        358.    
 LARGEST RESIDUAL FORCE              2.36       AT NODE         41   DOF  2
   INSTANCE: BEAM_DEFLECTION-1                                                               
 LARGEST INCREMENT OF DISP.         0.833       AT NODE         82   DOF  2
   INSTANCE: BEAM_DEFLECTION-1                                                               
 LARGEST CORRECTION TO DISP.        1.193E-02   AT NODE        205   DOF  2
   INSTANCE: BEAM_DEFLECTION-1                                                               
          FORCE     EQUILIBRIUM NOT ACHIEVED WITHIN TOLERANCE.

  NUMBER OF EQUATIONS =     1458     NUMBER OF FLOATING PT. OPERATIONS =  1.33E+06

     CHECK POINT   START OF SOLVER    

     CHECK POINT  END OF SOLVER       

       ELAPSED USER TIME (SEC)      =  0.10000    
       ELAPSED SYSTEM TIME (SEC)    =   0.0000    
       ELAPSED TOTAL CPU TIME (SEC) =  0.10000    
       ELAPSED WALLCLOCK TIME (SEC) =          0

               CONVERGENCE CHECKS FOR EQUILIBRIUM ITERATION     3


 AVERAGE FORCE                       543.       TIME AVG. FORCE        361.    
 LARGEST RESIDUAL FORCE            -0.240       AT NODE        205   DOF  2
   INSTANCE: BEAM_DEFLECTION-1                                                               
 LARGEST INCREMENT OF DISP.         0.834       AT NODE         82   DOF  2
   INSTANCE: BEAM_DEFLECTION-1                                                               
 LARGEST CORRECTION TO DISP.        1.222E-03   AT NODE         41   DOF  2
   INSTANCE: BEAM_DEFLECTION-1                                                               
          THE FORCE     EQUILIBRIUM EQUATIONS HAVE CONVERGED

 ITERATION SUMMARY FOR THE INCREMENT:   3 TOTAL ITERATIONS, OF WHICH
   0 ARE SEVERE DISCONTINUITY ITERATIONS AND  3 ARE EQUILIBRIUM ITERATIONS.

 TIME INCREMENT COMPLETED  0.250    ,  FRACTION OF STEP COMPLETED   1.00    
 STEP TIME COMPLETED        1.00    ,  TOTAL TIME COMPLETED         1.00    


          THE ANALYSIS HAS BEEN COMPLETED



     ANALYSIS SUMMARY:
     TOTAL OF          4  INCREMENTS
                       0  CUTBACKS IN AUTOMATIC INCREMENTATION
                      14  ITERATIONS INCLUDING CONTACT ITERATIONS IF PRESENT
                      14  PASSES THROUGH THE EQUATION SOLVER OF WHICH 
                      14  INVOLVE MATRIX DECOMPOSITION, INCLUDING
                       0  DECOMPOSITION(S) OF THE MASS MATRIX
                       1  REORDERING OF EQUATIONS TO MINIMIZE WAVEFRONT
                       0  ADDITIONAL RESIDUAL EVALUATIONS FOR LINE SEARCHES
                       0  ADDITIONAL OPERATOR EVALUATIONS FOR LINE SEARCHES
                       0  WARNING MESSAGES DURING USER INPUT PROCESSING
                       0  WARNING MESSAGES DURING ANALYSIS
                       0  ANALYSIS WARNINGS ARE NUMERICAL PROBLEM MESSAGES
                       0  ANALYSIS WARNINGS ARE NEGATIVE EIGENVALUE MESSAGES
                       0  ERROR MESSAGES



     JOB TIME SUMMARY
       USER TIME (SEC)      =  0.30000    
       SYSTEM TIME (SEC)    =   0.0000    
       TOTAL CPU TIME (SEC) =  0.30000    
       WALLCLOCK TIME (SEC) =          0
