*Heading
** Job name: beamDeflec_quadPSE_largeD_load800_fixX Model name: Model-1
** Generated by: Abaqus/CAE 6.14-1
*Preprint, echo=NO, model=NO, history=NO, contact=NO
**
** PARTS
**
*Part, name=beam_deflection
*End Part
**  
**
** ASSEMBLY
**
*Assembly, name=Assembly
**  
*Instance, name=beam_deflection-1, part=beam_deflection
*Node
      1,           0.,           0.
      2,           1.,           0.
      3,           2.,           0.
      4,           3.,           0.
      5,           4.,           0.
      6,           5.,           0.
      7,           6.,           0.
      8,           7.,           0.
      9,           8.,           0.
     10,           9.,           0.
     11,          10.,           0.
     12,          11.,           0.
     13,          12.,           0.
     14,          13.,           0.
     15,          14.,           0.
     16,          15.,           0.
     17,          16.,           0.
     18,          17.,           0.
     19,          18.,           0.
     20,          19.,           0.
** ... 709 like lines cut
*Element, type=CPS6
  1,   1,   2,  43, 206, 207, 208
  2,  43,  42,   1, 209, 210, 208
  3,   2,   3,  44, 211, 212, 213
  4,  44,  43,   2, 214, 207, 213
  5,   3,   4,  45, 215, 216, 217
  6,  45,  44,   3, 218, 212, 217
  7,   4,   5,  46, 219, 220, 221
  8,  46,  45,   4, 222, 216, 221
  9,   5,   6,  47, 223, 224, 225
 10,  47,  46,   5, 226, 220, 225
 11,   6,   7,  48, 227, 228, 229
 12,  48,  47,   6, 230, 224, 229
 13,   7,   8,  49, 231, 232, 233
 14,  49,  48,   7, 234, 228, 233
 15,   8,   9,  50, 235, 236, 237
 16,  50,  49,   8, 238, 232, 237
 17,   9,  10,  51, 239, 240, 241
 18,  51,  50,   9, 242, 236, 241
 19,  10,  11,  52, 243, 244, 245
 20,  52,  51,  10, 246, 240, 245
** ... 300 like lines cut
*Nset, nset=Set-1, generate
   1,  729,    1
*Elset, elset=Set-1, generate
   1,  320,    1
** Section: Section-1
*Solid Section, elset=Set-1, material=Material-1
,
*End Instance
**  
*Nset, nset=left_face, instance=beam_deflection-1
   1,  42,  83, 124, 165, 210, 370, 491, 612
*Elset, elset=left_face, instance=beam_deflection-1, generate
   2,  242,   80
*Nset, nset=right_face, instance=beam_deflection-1
  41,  82, 123, 164, 205, 364, 485, 606, 727
*Elset, elset=right_face, instance=beam_deflection-1, generate
  79,  319,   80
*Nset, nset=right_fix_x, instance=beam_deflection-1
  41,  82, 123, 164, 205, 364, 485, 606, 727
*Elset, elset=right_fix_x, instance=beam_deflection-1, generate
  79,  319,   80
*Elset, elset=_y_load_face_S2, internal, instance=beam_deflection-1, generate
  79,  319,   80
*Surface, type=ELEMENT, name=y_load_face
_y_load_face_S2, S2
*End Assembly
** 
** MATERIALS
** 
*Material, name=Material-1
*Elastic
200000., 0.3
** ----------------------------------------------------------------
** 
** STEP: Step-1
** 
*Step, name=Step-1, nlgeom=NO
*Static
0.5, 1., 1e-05, 0.5
** 
** BOUNDARY CONDITIONS
** 
** Name: left_fit Type: Displacement/Rotation
*Boundary
left_face, 1, 1
left_face, 2, 2
** Name: right_fix_x Type: Displacement/Rotation
*Boundary
right_fix_x, 1, 1
** 
** LOADS
** 
** Name: y_load   Type: Surface traction
*Dsload
y_load_face, TRVEC, 800., 0., 1., 0.
** 
** OUTPUT REQUESTS
** 
*Restart, write, frequency=0
** 
** FIELD OUTPUT: F-Output-1
** 
*Output, field, variable=PRESELECT
** 
** HISTORY OUTPUT: H-Output-1
** 
*Output, history, variable=PRESELECT
*End Step
